# generated using pymatgen
data_Fe12As5
_symmetry_space_group_name_H-M   'P 1'
_cell_length_a   6.75249268
_cell_length_b   11.47036524
_cell_length_c   6.75192760
_cell_angle_alpha   107.23837665
_cell_angle_beta   119.99960236
_cell_angle_gamma   89.98620628
_symmetry_Int_Tables_number   1
_chemical_formula_structural   Fe12As5
_chemical_formula_sum   'Fe24 As10'
_cell_volume   425.58063157
_cell_formula_units_Z   2
loop_
 _symmetry_equiv_pos_site_id
 _symmetry_equiv_pos_as_xyz
  1  'x, y, z'
loop_
 _atom_site_type_symbol
 _atom_site_label
 _atom_site_symmetry_multiplicity
 _atom_site_fract_x
 _atom_site_fract_y
 _atom_site_fract_z
 _atom_site_occupancy
  Fe  Fe0  1  0.19093000  0.57362900  0.38211000  1
  Fe  Fe1  1  0.69080900  0.07363300  0.38219300  1
  Fe  Fe2  1  0.30868200  0.92636400  0.61767500  1
  Fe  Fe3  1  0.80864200  0.42636900  0.61766600  1
  Fe  Fe4  1  0.48673900  0.75005300  0.49997200  1
  Fe  Fe5  1  0.98677300  0.24998600  0.49995600  1
  Fe  Fe6  1  0.01337000  0.75013400  0.26333800  1
  Fe  Fe7  1  0.51333100  0.25007300  0.26330700  1
  Fe  Fe8  1  0.25003000  0.74993500  0.73669900  1
  Fe  Fe9  1  0.74986600  0.24984500  0.73654100  1
  Fe  Fe10  1  0.14713600  0.37179500  0.00577400  1
  Fe  Fe11  1  0.64701800  0.87168300  0.00567900  1
  Fe  Fe12  1  0.85849200  0.37184700  0.22454100  1
  Fe  Fe13  1  0.35856500  0.87172500  0.22469500  1
  Fe  Fe14  1  0.64122900  0.12828000  0.99441700  1
  Fe  Fe15  1  0.14135500  0.62835700  0.99443100  1
  Fe  Fe16  1  0.13410400  0.12815300  0.77546700  1
  Fe  Fe17  1  0.63414200  0.62820500  0.77560600  1
  Fe  Fe18  1  0.35294900  0.12823800  0.48676200  1
  Fe  Fe19  1  0.85296300  0.62832200  0.48687100  1
  Fe  Fe20  1  0.36625900  0.37176800  0.51332500  1
  Fe  Fe21  1  0.86605500  0.87166200  0.51294500  1
  Fe  Fe22  1  0.49995500  0.50001300  0.99987000  1
  Fe  Fe23  1  0.00006900  0.99997800  0.00003700  1
  As  As24  1  0.42823000  0.28429800  0.85617200  1
  As  As25  1  0.92818900  0.78423900  0.85611400  1
  As  As26  1  0.07221000  0.21571300  0.14388600  1
  As  As27  1  0.57216100  0.71570100  0.14384300  1
  As  As28  1  0.15422200  0.50008700  0.65410500  1
  As  As29  1  0.65408200  0.00003200  0.65400400  1
  As  As30  1  0.50016400  0.49993600  0.34598900  1
  As  As31  1  0.00019100  0.99992300  0.34601800  1
  As  As32  1  0.84560400  0.50003800  0.00007100  1
  As  As33  1  0.34548300  0.99998800  0.99992100  1
loop_
 _atom_site_moment_label
 _atom_site_moment_crystalaxis_x
 _atom_site_moment_crystalaxis_y
 _atom_site_moment_crystalaxis_z
  Fe0  0.96219513  1.63499715  1.92471539
  Fe1  0.96473524  1.63931340  1.92979648
  Fe2  0.96270315  1.63586040  1.92573161
  Fe3  0.96117909  1.63327064  1.92268296
  Fe4  1.36200905  2.31437558  2.72447833
  Fe5  1.36200905  2.31437558  2.72447833
  Fe6  1.34880046  2.29193106  2.69805668
  Fe7  1.35845289  2.30833282  2.71736481
  Fe8  1.34676837  2.28847805  2.69399182
  Fe9  1.35540476  2.30315332  2.71126751
  Fe10  1.02417391  1.74031375  2.04869389
  Fe11  1.02569798  1.74290351  2.05174254
  Fe12  1.02214182  1.73686075  2.04462902
  Fe13  1.02874611  1.74808301  2.05783984
  Fe14  1.02620600  1.74376676  2.05275876
  Fe15  1.02722205  1.74549326  2.05479119
  Fe16  1.02315786  1.73858725  2.04666145
  Fe17  1.02518995  1.74204025  2.05072632
  Fe18  1.02671402  1.74463001  2.05377497
  Fe19  1.02061775  1.73427100  2.04158037
  Fe20  1.02620600  1.74376676  2.05275876
  Fe21  1.02518995  1.74204025  2.05072632
  Fe22  0.02641718  0.04488905  0.05284329
  Fe23  0.03098939  0.05265830  0.06198925
  As24  -0.02946532  -0.05006855  -0.05894060
  As25  -0.02946532  -0.05006855  -0.05894060
  As26  -0.02946532  -0.05006855  -0.05894060
  As27  -0.02946532  -0.05006855  -0.05894060
  As28  -0.03251346  -0.05524806  -0.06503790
  As29  -0.03302148  -0.05611131  -0.06605412
  As30  -0.03302148  -0.05611131  -0.06605412
  As31  -0.03302148  -0.05611131  -0.06605412
  As32  -0.03302148  -0.05611131  -0.06605412
  As33  -0.03352950  -0.05697456  -0.06707034
