# generated using pymatgen
data_Co2As
_symmetry_space_group_name_H-M   'P 1'
_cell_length_a   6.05911518
_cell_length_b   6.92901871
_cell_length_c   6.92884247
_cell_angle_alpha   119.15942915
_cell_angle_beta   115.94976066
_cell_angle_gamma   64.05143635
_symmetry_Int_Tables_number   1
_chemical_formula_structural   Co2As
_chemical_formula_sum   'Co12 As6'
_cell_volume   218.89794931
_cell_formula_units_Z   6
loop_
 _symmetry_equiv_pos_site_id
 _symmetry_equiv_pos_as_xyz
  1  'x, y, z'
loop_
 _atom_site_type_symbol
 _atom_site_label
 _atom_site_symmetry_multiplicity
 _atom_site_fract_x
 _atom_site_fract_y
 _atom_site_fract_z
 _atom_site_occupancy
  Co  Co0  1  0.02743800  0.94769800  0.55233500  1
  Co  Co1  1  0.61013700  0.24920100  0.25076800  1
  Co  Co2  1  0.42169800  0.55268100  0.94736100  1
  Co  Co3  1  0.00288100  0.37915600  0.63696000  1
  Co  Co4  1  0.00288200  0.86304000  0.12084900  1
  Co  Co5  1  0.25574300  0.00760900  0.00755800  1
  Co  Co6  1  0.25576700  0.49237500  0.49234100  1
  Co  Co7  1  0.74449600  0.12182600  0.86378300  1
  Co  Co8  1  0.74450000  0.63625300  0.37820600  1
  Co  Co9  1  0.94502200  0.46430500  0.03565400  1
  Co  Co10  1  0.60135700  0.75031700  0.74970300  1
  Co  Co11  1  0.37361700  0.03545000  0.46451700  1
  As  As12  1  0.99450400  0.24984600  0.25014500  1
  As  As13  1  0.01233500  0.75049900  0.74950000  1
  As  As14  1  0.33690600  0.18084000  0.85117000  1
  As  As15  1  0.33693600  0.64883900  0.31918900  1
  As  As16  1  0.66689900  0.31948600  0.64942600  1
  As  As17  1  0.66688500  0.85057800  0.18053400  1
loop_
 _atom_site_moment_label
 _atom_site_moment_crystalaxis_x
 _atom_site_moment_crystalaxis_y
 _atom_site_moment_crystalaxis_z
  Co0  0.00000269  0.94798590  0.94797670
  Co1  -0.00000012  -0.04246187  -0.04246146
  Co2  0.00000272  0.95687327  0.95686398
  Co3  0.00000079  0.27748337  0.27748068
  Co4  0.00000079  0.27847086  0.27846815
  Co5  0.00000060  0.21033437  0.21033233
  Co6  0.00000060  0.21033437  0.21033233
  Co7  0.00000076  0.26760852  0.26760592
  Co8  0.00000076  0.26662103  0.26661845
  Co9  0.00000285  1.00427256  1.00426281
  Co10  0.00000338  1.19090728  1.19089573
  Co11  0.00000287  1.01019747  1.01018767
  As12  -0.00000003  -0.01086234  -0.01086223
  As13  -0.00000004  -0.01283731  -0.01283718
  As14  -0.00000004  -0.01382479  -0.01382466
  As15  -0.00000004  -0.01382479  -0.01382466
  As16  -0.00000004  -0.01382479  -0.01382466
  As17  -0.00000004  -0.01382479  -0.01382466
