# generated using pymatgen
data_Mn2As
_symmetry_space_group_name_H-M   'P 1'
_cell_length_a   3.68422106
_cell_length_b   3.68422105
_cell_length_c   6.14955713
_cell_angle_alpha   90.00000000
_cell_angle_beta   90.00000000
_cell_angle_gamma   90.00000000
_symmetry_Int_Tables_number   1
_chemical_formula_structural   Mn2As
_chemical_formula_sum   'Mn4 As2'
_cell_volume   83.47092012
_cell_formula_units_Z   2
loop_
 _symmetry_equiv_pos_site_id
 _symmetry_equiv_pos_as_xyz
  1  'x, y, z'
loop_
 _atom_site_type_symbol
 _atom_site_label
 _atom_site_symmetry_multiplicity
 _atom_site_fract_x
 _atom_site_fract_y
 _atom_site_fract_z
 _atom_site_occupancy
  Mn  Mn0  1  0.25000000  0.25000000  0.50000000  1
  Mn  Mn1  1  0.75000000  0.75000000  0.50000000  1
  Mn  Mn2  1  0.75000000  0.25000000  0.81961100  1
  Mn  Mn3  1  0.25000000  0.75000000  0.18038900  1
  As  As4  1  0.75000000  0.25000000  0.22761800  1
  As  As5  1  0.25000000  0.75000000  0.77238200  1
loop_
 _atom_site_moment_label
 _atom_site_moment_crystalaxis_x
 _atom_site_moment_crystalaxis_y
 _atom_site_moment_crystalaxis_z
  Mn0  0.00000000  0.00000000  -2.01150000
  Mn1  0.00000000  0.00000000  -2.01150000
  Mn2  0.00000000  0.00000000  3.25900000
  Mn3  0.00000000  0.00000000  3.25900000
  As4  0.00000000  0.00000000  0.00700000
  As5  0.00000000  0.00000000  0.00700000
