# generated using pymatgen
data_GaFe3
_symmetry_space_group_name_H-M   'P 1'
_cell_length_a   4.06716648
_cell_length_b   4.06716648
_cell_length_c   4.06716648
_cell_angle_alpha   120.00000000
_cell_angle_beta   90.00000000
_cell_angle_gamma   120.00000000
_symmetry_Int_Tables_number   1
_chemical_formula_structural   GaFe3
_chemical_formula_sum   'Ga1 Fe3'
_cell_volume   47.57303423
_cell_formula_units_Z   1
loop_
 _symmetry_equiv_pos_site_id
 _symmetry_equiv_pos_as_xyz
  1  'x, y, z'
loop_
 _atom_site_type_symbol
 _atom_site_label
 _atom_site_symmetry_multiplicity
 _atom_site_fract_x
 _atom_site_fract_y
 _atom_site_fract_z
 _atom_site_occupancy
  Ga  Ga0  1  0.00000000  0.00000000  0.00000000  1
  Fe  Fe1  1  0.50000000  0.00000000  0.50000000  1
  Fe  Fe2  1  0.25000000  0.50000000  0.75000000  1
  Fe  Fe3  1  0.75000000  0.50000000  0.25000000  1
loop_
 _atom_site_moment_label
 _atom_site_moment_crystalaxis_x
 _atom_site_moment_crystalaxis_y
 _atom_site_moment_crystalaxis_z
  Ga0  0.10465180  0.10465180  0.00000000
  Fe1  -2.42961890  -2.42961890  0.00000000
  Fe2  -1.94595786  -1.94595786  0.00000000
  Fe3  -1.94595786  -1.94595786  0.00000000
