# generated using pymatgen
data_K(V3S4)2
_symmetry_space_group_name_H-M   'P 1'
_cell_length_a   3.69794423
_cell_length_b   9.56466332
_cell_length_c   9.59644409
_cell_angle_alpha   59.90351674
_cell_angle_beta   89.96747732
_cell_angle_gamma   89.98106631
_symmetry_Int_Tables_number   1
_chemical_formula_structural   K(V3S4)2
_chemical_formula_sum   'K1 V6 S8'
_cell_volume   293.66209193
_cell_formula_units_Z   1
loop_
 _symmetry_equiv_pos_site_id
 _symmetry_equiv_pos_as_xyz
  1  'x, y, z'
loop_
 _atom_site_type_symbol
 _atom_site_label
 _atom_site_symmetry_multiplicity
 _atom_site_fract_x
 _atom_site_fract_y
 _atom_site_fract_z
 _atom_site_occupancy
  K  K0  1  0.49243900  0.00509800  0.00103300  1
  V  V1  1  0.25188800  0.34506100  0.13063900  1
  V  V2  1  0.25120000  0.13040400  0.52587400  1
  V  V3  1  0.74955100  0.48256200  0.65338500  1
  V  V4  1  0.25193100  0.52614300  0.34213500  1
  V  V5  1  0.74989200  0.65047600  0.86797900  1
  V  V6  1  0.74958100  0.86288200  0.48022500  1
  S  S7  1  0.24975500  0.66398800  0.66742600  1
  S  S8  1  0.75089400  0.33384200  0.33302400  1
  S  S9  1  0.24931700  0.63662400  0.04900800  1
  S  S10  1  0.24919600  0.05036500  0.31612800  1
  S  S11  1  0.24906800  0.31515400  0.63385900  1
  S  S12  1  0.75221300  0.34544400  0.96678900  1
  S  S13  1  0.75120900  0.96305000  0.68744000  1
  S  S14  1  0.75186700  0.68890600  0.34505600  1
loop_
 _atom_site_moment_label
 _atom_site_moment_crystalaxis_x
 _atom_site_moment_crystalaxis_y
 _atom_site_moment_crystalaxis_z
  V1  0.00041630  -0.00094707  -1.92352510
  V2  0.00041565  -0.00094559  -1.92052584
  V3  0.00055781  -0.00126899  -2.57736368
  V4  -0.00043383  0.00098694  2.00450511
  V5  -0.00055998  0.00127391  2.58736121
  V6  -0.00056192  0.00127834  2.59635899
  S7  0.00000173  -0.00000394  -0.00799803
  S8  -0.00000346  0.00000788  0.01599605
  S9  0.00000995  -0.00002264  -0.04598865
  S10  -0.00000043  0.00000098  0.00199951
  S11  -0.00000865  0.00001969  0.03999013
  S12  -0.00000974  0.00002215  0.04498889
  S13  -0.00000389  0.00000886  0.01799556
  S14  0.00001060  -0.00002412  -0.04898791
