# generated using pymatgen
data_V5Te8
_symmetry_space_group_name_H-M   'P 1'
_cell_length_a   7.75347517
_cell_length_b   7.74544597
_cell_length_c   13.53492830
_cell_angle_alpha   91.13903540
_cell_angle_beta   89.87078308
_cell_angle_gamma   63.34865379
_symmetry_Int_Tables_number   1
_chemical_formula_structural   V5Te8
_chemical_formula_sum   'V10 Te16'
_cell_volume   726.26705266
_cell_formula_units_Z   2
loop_
 _symmetry_equiv_pos_site_id
 _symmetry_equiv_pos_as_xyz
  1  'x, y, z'
loop_
 _atom_site_type_symbol
 _atom_site_label
 _atom_site_symmetry_multiplicity
 _atom_site_fract_x
 _atom_site_fract_y
 _atom_site_fract_z
 _atom_site_occupancy
  V  V0  1  0.00225300  0.99818800  0.99738700  1
  V  V1  1  0.49746200  0.49929400  0.50167000  1
  V  V2  1  0.48881200  0.01001100  0.74971100  1
  V  V3  1  0.01388700  0.48760800  0.75019800  1
  V  V4  1  0.25508800  0.25434100  0.99486600  1
  V  V5  1  0.98628800  0.51353200  0.25100600  1
  V  V6  1  0.50783200  0.98942700  0.24886200  1
  V  V7  1  0.74935700  0.75111100  0.00397700  1
  V  V8  1  0.24842400  0.24409500  0.50664400  1
  V  V9  1  0.75114800  0.74981300  0.49560400  1
  Te  Te10  1  0.62352900  0.62266700  0.16566100  1
  Te  Te11  1  0.12211100  0.11792200  0.66961200  1
  Te  Te12  1  0.86966200  0.88387500  0.33270700  1
  Te  Te13  1  0.38045100  0.37798700  0.82959300  1
  Te  Te14  1  0.13228700  0.13550700  0.16800000  1
  Te  Te15  1  0.63572100  0.62903100  0.66992400  1
  Te  Te16  1  0.36077000  0.36781900  0.33344400  1
  Te  Te17  1  0.86737700  0.86818800  0.82860100  1
  Te  Te18  1  0.62240900  0.12942600  0.08361200  1
  Te  Te19  1  0.11800100  0.62597400  0.58321600  1
  Te  Te20  1  0.88038400  0.37141900  0.41744700  1
  Te  Te21  1  0.38115100  0.87387700  0.91618200  1
  Te  Te22  1  0.37296300  0.87621300  0.41686200  1
  Te  Te23  1  0.87850100  0.37653300  0.91712500  1
  Te  Te24  1  0.12655200  0.62576900  0.08550800  1
  Te  Te25  1  0.62758200  0.12037300  0.58257500  1
loop_
 _atom_site_moment_label
 _atom_site_moment_crystalaxis_x
 _atom_site_moment_crystalaxis_y
 _atom_site_moment_crystalaxis_z
  V0  -1.05825597  -1.09809143  -1.92560927
  V1  -1.06425516  -1.10431644  -1.93652543
  V2  -0.85708335  -0.88934616  -1.55955430
  V3  -0.85748330  -0.88976116  -1.56028204
  V4  -0.84668477  -0.87855615  -1.54063297
  V5  0.85988297  0.89225116  1.56464850
  V6  0.85508362  0.88727116  1.55591558
  V7  0.84628482  0.87814114  1.53990522
  V8  0.85348384  0.88561115  1.55300461
  V9  0.86588215  0.89847617  1.57556466
  Te10  -0.05119303  -0.05312007  -0.09315117
  Te11  0.01759760  0.01826002  0.03202071
  Te12  -0.06039178  -0.06266508  -0.10988927
  Te13  0.05559243  0.05768508  0.10115635
  Te14  -0.00839886  -0.00871501  -0.01528261
  Te15  0.01239831  0.01286502  0.02256005
  Te16  -0.04159434  -0.04316006  -0.07568532
  Te17  0.01479799  0.01535502  0.02692651
  Te18  -0.01639777  -0.01701502  -0.02983748
  Te19  -0.00079989  -0.00083000  -0.00145549
  Te20  -0.04119439  -0.04274506  -0.07495758
  Te21  0.03239559  0.03361504  0.05894722
  Te22  -0.03559516  -0.03693505  -0.06476917
  Te23  0.02599646  0.02697504  0.04730333
  Te24  -0.01039858  -0.01079001  -0.01892133
  Te25  -0.00199973  -0.00207500  -0.00363872
