# generated using pymatgen
data_Be4FeGe
_symmetry_space_group_name_H-M   'P 1'
_cell_length_a   4.42154609
_cell_length_b   6.11251915
_cell_length_c   4.42693713
_cell_angle_alpha   90.10860819
_cell_angle_beta   90.00202820
_cell_angle_gamma   90.01144712
_symmetry_Int_Tables_number   1
_chemical_formula_structural   Be4FeGe
_chemical_formula_sum   'Be8 Fe2 Ge2'
_cell_volume   119.64566127
_cell_formula_units_Z   2
loop_
 _symmetry_equiv_pos_site_id
 _symmetry_equiv_pos_as_xyz
  1  'x, y, z'
loop_
 _atom_site_type_symbol
 _atom_site_label
 _atom_site_symmetry_multiplicity
 _atom_site_fract_x
 _atom_site_fract_y
 _atom_site_fract_z
 _atom_site_occupancy
  Be  Be0  1  0.24775400  0.62458800  0.99965800  1
  Be  Be1  1  0.74774500  0.12459900  0.49979000  1
  Be  Be2  1  0.00011200  0.37570200  0.75200600  1
  Be  Be3  1  0.50002100  0.87574900  0.25200900  1
  Be  Be4  1  0.75223100  0.62451400  0.99961200  1
  Be  Be5  1  0.25221100  0.12452700  0.49958200  1
  Be  Be6  1  0.99999700  0.37602100  0.24774100  1
  Be  Be7  1  0.50008000  0.87598700  0.74773100  1
  Fe  Fe8  1  0.99997900  0.74984500  0.50002700  1
  Fe  Fe9  1  0.49997700  0.24984700  0.00003100  1
  Ge  Ge10  1  0.99995200  0.99930800  0.00091300  1
  Ge  Ge11  1  0.49994100  0.49931200  0.50090100  1
loop_
 _atom_site_moment_label
 _atom_site_moment_crystalaxis_x
 _atom_site_moment_crystalaxis_y
 _atom_site_moment_crystalaxis_z
  Be0  0.01300210  0.01839818  0.01301799
  Be1  -0.01300210  -0.01839818  -0.01301799
  Be2  -0.01250202  -0.01769055  -0.01251730
  Be3  0.01250202  0.01769055  0.01251730
  Be4  0.01250202  0.01769055  0.01251730
  Be5  -0.01250202  -0.01769055  -0.01251730
  Be6  -0.01250202  -0.01769055  -0.01251730
  Be7  0.01200194  0.01698293  0.01201660
  Fe8  -1.34771785  -1.90704175  -1.34936459
  Fe9  1.34771785  1.90704175  1.34936459
  Ge10  0.00050008  0.00070762  0.00050069
  Ge11  -0.00050008  -0.00070762  -0.00050069
