# generated using pymatgen
data_Rb(CrS2)2
_symmetry_space_group_name_H-M   'P 1'
_cell_length_a   7.46637250
_cell_length_b   7.46649661
_cell_length_c   7.46631383
_cell_angle_alpha   105.12674403
_cell_angle_beta   111.68294946
_cell_angle_gamma   111.68925299
_symmetry_Int_Tables_number   1
_chemical_formula_structural   Rb(CrS2)2
_chemical_formula_sum   'Rb2 Cr4 S8'
_cell_volume   319.04617613
_cell_formula_units_Z   2
loop_
 _symmetry_equiv_pos_site_id
 _symmetry_equiv_pos_as_xyz
  1  'x, y, z'
loop_
 _atom_site_type_symbol
 _atom_site_label
 _atom_site_symmetry_multiplicity
 _atom_site_fract_x
 _atom_site_fract_y
 _atom_site_fract_z
 _atom_site_occupancy
  Rb  Rb0  1  0.00000100  0.00000000  0.99999900  1
  Rb  Rb1  1  0.50000000  0.75000000  0.25000100  1
  Cr  Cr2  1  0.25000000  0.37500000  0.62500000  1
  Cr  Cr3  1  0.75000000  0.37500000  0.62500000  1
  Cr  Cr4  1  0.75000000  0.37500000  0.12500000  1
  Cr  Cr5  1  0.25000000  0.87500000  0.62500000  1
  S  S6  1  0.16937300  0.63611500  0.80549000  1
  S  S7  1  0.83062400  0.19451100  0.36388600  1
  S  S8  1  0.83062600  0.63611500  0.46674200  1
  S  S9  1  0.16937500  0.53326000  0.36388600  1
  S  S10  1  0.33062700  0.11388400  0.44451000  1
  S  S11  1  0.33062500  0.21674000  0.88611500  1
  S  S12  1  0.66937400  0.11388500  0.78325800  1
  S  S13  1  0.66937500  0.55548900  0.88611400  1
loop_
 _atom_site_moment_label
 _atom_site_moment_crystalaxis_x
 _atom_site_moment_crystalaxis_y
 _atom_site_moment_crystalaxis_z
  Rb0  0.00000143  0.00019101  -0.03894919
  Rb1  0.00000143  0.00019101  -0.03894919
  Cr2  -0.00012164  -0.01624087  3.31168013
  Cr3  -0.00012161  -0.01623597  3.31068143
  Cr4  -0.00012186  -0.01627025  3.31767231
  Cr5  -0.00012183  -0.01626535  3.31667362
  S6  0.00001251  0.00167013  -0.34055577
  S7  0.00001251  0.00167013  -0.34055577
  S8  0.00001255  0.00167502  -0.34155446
  S9  0.00001251  0.00167013  -0.34055577
  S10  0.00001251  0.00167013  -0.34055577
  S11  0.00001251  0.00167013  -0.34055577
  S12  0.00001255  0.00167502  -0.34155446
  S13  0.00001251  0.00167013  -0.34055577
