# generated using pymatgen
data_CrTe
_symmetry_space_group_name_H-M   'P 1'
_cell_length_a   4.15326801
_cell_length_b   4.20723479
_cell_length_c   6.47374307
_cell_angle_alpha   89.98896883
_cell_angle_beta   89.99392446
_cell_angle_gamma   119.57792994
_symmetry_Int_Tables_number   1
_chemical_formula_structural   CrTe
_chemical_formula_sum   'Cr2 Te2'
_cell_volume   98.37940460
_cell_formula_units_Z   2
loop_
 _symmetry_equiv_pos_site_id
 _symmetry_equiv_pos_as_xyz
  1  'x, y, z'
loop_
 _atom_site_type_symbol
 _atom_site_label
 _atom_site_symmetry_multiplicity
 _atom_site_fract_x
 _atom_site_fract_y
 _atom_site_fract_z
 _atom_site_occupancy
  Cr  Cr0  1  0.99998900  0.49999900  0.49999100  1
  Cr  Cr1  1  0.00002100  0.50000600  0.99999100  1
  Te  Te2  1  0.33299400  0.16600000  0.74997600  1
  Te  Te3  1  0.66699600  0.83399500  0.25004200  1
loop_
 _atom_site_moment_label
 _atom_site_moment_crystalaxis_x
 _atom_site_moment_crystalaxis_y
 _atom_site_moment_crystalaxis_z
  Cr0  -2.24298885  -4.54417350  0.00055355
  Cr1  -2.24298885  -4.54417350  0.00055355
  Te2  0.12770053  0.25871433  -0.00003152
  Te3  0.12770053  0.25871433  -0.00003152
