# generated using pymatgen
data_RbMnTe2
_symmetry_space_group_name_H-M   'P 1'
_cell_length_a   4.79868463
_cell_length_b   14.62046550
_cell_length_c   9.81388069
_cell_angle_alpha   90.55234401
_cell_angle_beta   103.97803487
_cell_angle_gamma   99.32493344
_symmetry_Int_Tables_number   1
_chemical_formula_structural   RbMnTe2
_chemical_formula_sum   'Rb4 Mn4 Te8'
_cell_volume   658.45822349
_cell_formula_units_Z   4
loop_
 _symmetry_equiv_pos_site_id
 _symmetry_equiv_pos_as_xyz
  1  'x, y, z'
loop_
 _atom_site_type_symbol
 _atom_site_label
 _atom_site_symmetry_multiplicity
 _atom_site_fract_x
 _atom_site_fract_y
 _atom_site_fract_z
 _atom_site_occupancy
  Rb  Rb0  1  0.97355200  0.95036400  0.99751700  1
  Rb  Rb1  1  0.96570200  0.21793800  0.71436300  1
  Rb  Rb2  1  0.97348600  0.45036400  0.49762200  1
  Rb  Rb3  1  0.96566600  0.71794900  0.21429500  1
  Mn  Mn4  1  0.26048300  0.84495700  0.67679800  1
  Mn  Mn5  1  0.26153400  0.05880800  0.46553300  1
  Mn  Mn6  1  0.26002600  0.34505400  0.17680000  1
  Mn  Mn7  1  0.26210300  0.55884000  0.96574900  1
  Te  Te8  1  0.32946600  0.24424500  0.41300200  1
  Te  Te9  1  0.39026300  0.53190000  0.24965400  1
  Te  Te10  1  0.32939900  0.74425400  0.91300800  1
  Te  Te11  1  0.39030400  0.03184600  0.74951300  1
  Te  Te12  1  0.65863500  0.30851100  0.00806300  1
  Te  Te13  1  0.66042500  0.46824900  0.85012800  1
  Te  Te14  1  0.65895800  0.80850200  0.50797500  1
  Te  Te15  1  0.65999900  0.96821900  0.34998100  1
loop_
 _atom_site_moment_label
 _atom_site_moment_crystalaxis_x
 _atom_site_moment_crystalaxis_y
 _atom_site_moment_crystalaxis_z
  Rb0  -0.00001469  -0.00038029  -0.00093297
  Rb2  0.00001469  0.00038029  0.00093297
  Mn4  -0.06745598  -1.74589307  -4.28328345
  Mn5  -0.06745598  -1.74589307  -4.28328345
  Mn6  0.06745598  1.74589307  4.28328345
  Mn7  0.06745598  1.74589307  4.28328345
  Te9  -0.00011754  -0.00304229  -0.00746379
  Te11  0.00011754  0.00304229  0.00746379
  Te13  -0.00001469  -0.00038029  -0.00093297
  Te15  0.00001469  0.00038029  0.00093297
