# generated using pymatgen
data_Ni3Sn
_symmetry_space_group_name_H-M   'P 1'
_cell_length_a   4.35942759
_cell_length_b   4.48195607
_cell_length_c   5.80068267
_cell_angle_alpha   89.73950970
_cell_angle_beta   89.98125180
_cell_angle_gamma   90.05718914
_symmetry_Int_Tables_number   1
_chemical_formula_structural   Ni3Sn
_chemical_formula_sum   'Ni6 Sn2'
_cell_volume   113.33692954
_cell_formula_units_Z   2
loop_
 _symmetry_equiv_pos_site_id
 _symmetry_equiv_pos_as_xyz
  1  'x, y, z'
loop_
 _atom_site_type_symbol
 _atom_site_label
 _atom_site_symmetry_multiplicity
 _atom_site_fract_x
 _atom_site_fract_y
 _atom_site_fract_z
 _atom_site_occupancy
  Ni  Ni0  1  0.00074400  0.28953400  0.49745300  1
  Ni  Ni1  1  0.50024200  0.71560400  0.99841900  1
  Ni  Ni2  1  0.00060200  0.79641300  0.74909100  1
  Ni  Ni3  1  0.00022000  0.79489000  0.25174900  1
  Ni  Ni4  1  0.49915600  0.20408600  0.75309500  1
  Ni  Ni5  1  0.49937800  0.20427700  0.25087900  1
  Sn  Sn6  1  0.50024400  0.70634300  0.50793100  1
  Sn  Sn7  1  0.99941400  0.28885300  0.99138200  1
loop_
 _atom_site_moment_label
 _atom_site_moment_crystalaxis_x
 _atom_site_moment_crystalaxis_y
 _atom_site_moment_crystalaxis_z
  Ni0  -0.00017484  -0.00249140  0.95900813
  Ni1  0.00017849  0.00254336  -0.97900830
  Ni2  -0.00003136  -0.00044684  0.17200146
  Ni3  -0.00001568  -0.00022342  0.08600073
  Ni4  -0.00002644  -0.00037670  0.14500123
  Ni5  -0.00004576  -0.00065208  0.25100213
  Sn6  -0.00000073  -0.00001039  0.00400003
  Sn7  0.00000055  0.00000779  -0.00300003
