# generated using pymatgen
data_GaNi3
_symmetry_space_group_name_H-M   'P 1'
_cell_length_a   5.10681002
_cell_length_b   5.09867563
_cell_length_c   4.15596140
_cell_angle_alpha   89.84059216
_cell_angle_beta   89.90602778
_cell_angle_gamma   119.60251698
_symmetry_Int_Tables_number   1
_chemical_formula_structural   GaNi3
_chemical_formula_sum   'Ga2 Ni6'
_cell_volume   94.08719369
_cell_formula_units_Z   2
loop_
 _symmetry_equiv_pos_site_id
 _symmetry_equiv_pos_as_xyz
  1  'x, y, z'
loop_
 _atom_site_type_symbol
 _atom_site_label
 _atom_site_symmetry_multiplicity
 _atom_site_fract_x
 _atom_site_fract_y
 _atom_site_fract_z
 _atom_site_occupancy
  Ga  Ga0  1  0.33364100  0.66604400  0.74998600  1
  Ga  Ga1  1  0.66587300  0.33456000  0.25032700  1
  Ni  Ni2  1  0.16383600  0.32900200  0.25193300  1
  Ni  Ni3  1  0.67025600  0.83681500  0.24794700  1
  Ni  Ni4  1  0.16370600  0.83432600  0.24926500  1
  Ni  Ni5  1  0.83397100  0.66564500  0.74968500  1
  Ni  Ni6  1  0.33395000  0.16699800  0.75050000  1
  Ni  Ni7  1  0.83476800  0.16661000  0.75035800  1
loop_
 _atom_site_moment_label
 _atom_site_moment_crystalaxis_x
 _atom_site_moment_crystalaxis_y
 _atom_site_moment_crystalaxis_z
  Ga0  0.00008046  0.00009849  -0.03900030
  Ga1  0.00008252  0.00010101  -0.04000031
  Ni2  -0.00159675  -0.00195455  0.77400593
  Ni3  -0.00159675  -0.00195455  0.77400593
  Ni4  -0.00165451  -0.00202526  0.80200615
  Ni5  -0.00147709  -0.00180809  0.71600549
  Ni6  -0.00147503  -0.00180556  0.71500548
  Ni7  -0.00149154  -0.00182577  0.72300554
