# generated using pymatgen
data_Li2VPb2
_symmetry_space_group_name_H-M   'P 1'
_cell_length_a   6.63302923
_cell_length_b   8.75521056
_cell_length_c   8.73595413
_cell_angle_alpha   95.59907122
_cell_angle_beta   112.28774261
_cell_angle_gamma   67.41990954
_symmetry_Int_Tables_number   1
_chemical_formula_structural   Li2VPb2
_chemical_formula_sum   'Li8 V4 Pb8'
_cell_volume   432.75524312
_cell_formula_units_Z   4
loop_
 _symmetry_equiv_pos_site_id
 _symmetry_equiv_pos_as_xyz
  1  'x, y, z'
loop_
 _atom_site_type_symbol
 _atom_site_label
 _atom_site_symmetry_multiplicity
 _atom_site_fract_x
 _atom_site_fract_y
 _atom_site_fract_z
 _atom_site_occupancy
  Li  Li0  1  0.75049900  0.12030000  0.62035800  1
  Li  Li1  1  0.24995900  0.12019400  0.62045900  1
  Li  Li2  1  0.24949800  0.87970000  0.37964100  1
  Li  Li3  1  0.75004200  0.87980500  0.37954100  1
  Li  Li4  1  0.63256400  0.61753300  0.88241600  1
  Li  Li5  1  0.13239900  0.61742800  0.88252900  1
  Li  Li6  1  0.36743600  0.38246600  0.11758500  1
  Li  Li7  1  0.86760000  0.38257500  0.11747000  1
  V  V8  1  0.50000000  0.00000000  0.00000000  1
  V  V9  1  0.50000000  0.50000000  0.50000000  1
  V  V10  1  0.00000000  0.99999900  0.00000000  1
  V  V11  1  0.00000100  0.49999900  0.50000000  1
  Pb  Pb12  1  0.99996200  0.68081100  0.18077300  1
  Pb  Pb13  1  0.50009500  0.68109700  0.18123700  1
  Pb  Pb14  1  0.49990500  0.31890200  0.81876300  1
  Pb  Pb15  1  0.00003800  0.31918900  0.81922700  1
  Pb  Pb16  1  0.32280300  0.17705900  0.32327100  1
  Pb  Pb17  1  0.82295100  0.17708000  0.32299800  1
  Pb  Pb18  1  0.17704900  0.82291900  0.67700200  1
  Pb  Pb19  1  0.67719700  0.82294000  0.67672900  1
loop_
 _atom_site_moment_label
 _atom_site_moment_crystalaxis_x
 _atom_site_moment_crystalaxis_y
 _atom_site_moment_crystalaxis_z
  Li4  -0.00170018  0.00433722  -0.00012192
  Li5  0.00170018  -0.00433722  0.00012192
  Li6  -0.00170018  0.00433722  -0.00012192
  Li7  0.00170018  -0.00433722  0.00012192
  V8  1.21095181  -3.08918378  0.08683597
  V9  1.21095181  -3.08918378  0.08683597
  V10  -1.21137685  3.09026809  -0.08686645
  V11  -1.21052677  3.08809948  -0.08680549
  Pb12  0.00212522  -0.00542152  0.00015240
  Pb13  -0.00212522  0.00542152  -0.00015240
  Pb14  -0.00212522  0.00542152  -0.00015240
  Pb15  0.00212522  -0.00542152  0.00015240
  Pb16  -0.00722576  0.01843318  -0.00051815
  Pb17  0.00722576  -0.01843318  0.00051815
  Pb18  0.00722576  -0.01843318  0.00051815
  Pb19  -0.00722576  0.01843318  -0.00051815
