# generated using pymatgen
data_NiTe
_symmetry_space_group_name_H-M   'P 1'
_cell_length_a   3.60685270
_cell_length_b   7.15391527
_cell_length_c   7.61675893
_cell_angle_alpha   109.04539010
_cell_angle_beta   90.01462767
_cell_angle_gamma   89.92688049
_symmetry_Int_Tables_number   1
_chemical_formula_structural   NiTe
_chemical_formula_sum   'Ni4 Te4'
_cell_volume   185.77766295
_cell_formula_units_Z   4
loop_
 _symmetry_equiv_pos_site_id
 _symmetry_equiv_pos_as_xyz
  1  'x, y, z'
loop_
 _atom_site_type_symbol
 _atom_site_label
 _atom_site_symmetry_multiplicity
 _atom_site_fract_x
 _atom_site_fract_y
 _atom_site_fract_z
 _atom_site_occupancy
  Ni  Ni0  1  0.49955200  0.39043100  0.62311100  1
  Ni  Ni1  1  0.00025800  0.60939000  0.87695500  1
  Ni  Ni2  1  0.99994300  0.39105200  0.12320200  1
  Ni  Ni3  1  0.50016800  0.60911300  0.37669600  1
  Te  Te4  1  0.49989400  0.78280800  0.74265800  1
  Te  Te5  1  0.99984500  0.78306700  0.24286800  1
  Te  Te6  1  0.50028300  0.21708900  0.25719900  1
  Te  Te7  1  0.00005600  0.21705000  0.75731100  1
loop_
 _atom_site_moment_label
 _atom_site_moment_crystalaxis_x
 _atom_site_moment_crystalaxis_y
 _atom_site_moment_crystalaxis_z
  Ni0  -0.27328521  -1.00389406  -0.50138195
  Ni1  -0.27328521  -1.00389406  -0.50138195
  Ni2  0.27301274  1.00289317  0.50088207
  Ni3  0.27301274  1.00289317  0.50088207
  Te4  -0.00926391  -0.03403031  -0.01699600
  Te5  0.00926391  0.03403031  0.01699600
  Te6  0.00926391  0.03403031  0.01699600
  Te7  -0.00926391  -0.03403031  -0.01699600
