# generated using pymatgen
data_GaFe
_symmetry_space_group_name_H-M   'P 1'
_cell_length_a   2.78554312
_cell_length_b   5.06719686
_cell_length_c   5.34344200
_cell_angle_alpha   58.18069569
_cell_angle_beta   90.00056802
_cell_angle_gamma   106.11961748
_symmetry_Int_Tables_number   1
_chemical_formula_structural   GaFe
_chemical_formula_sum   'Ga2 Fe2'
_cell_volume   60.56977441
_cell_formula_units_Z   2
loop_
 _symmetry_equiv_pos_site_id
 _symmetry_equiv_pos_as_xyz
  1  'x, y, z'
loop_
 _atom_site_type_symbol
 _atom_site_label
 _atom_site_symmetry_multiplicity
 _atom_site_fract_x
 _atom_site_fract_y
 _atom_site_fract_z
 _atom_site_occupancy
  Ga  Ga0  1  0.74994100  0.49991900  0.26394600  1
  Ga  Ga1  1  0.24997700  0.49992700  0.76394400  1
  Fe  Fe2  1  0.00004000  0.00007600  0.31938600  1
  Fe  Fe3  1  0.50004200  0.00007800  0.81939000  1
loop_
 _atom_site_moment_label
 _atom_site_moment_crystalaxis_x
 _atom_site_moment_crystalaxis_y
 _atom_site_moment_crystalaxis_z
  Fe2  -1.07293243  -3.88380609  2.04774511
  Fe3  1.07293243  3.88380609  -2.04774511
