# generated using pymatgen
data_NaCr5Se8
_symmetry_space_group_name_H-M   'P 1'
_cell_length_a   3.72523656
_cell_length_b   9.07836238
_cell_length_c   9.83421943
_cell_angle_alpha   105.74849975
_cell_angle_beta   100.92124838
_cell_angle_gamma   89.94175955
_symmetry_Int_Tables_number   1
_chemical_formula_structural   NaCr5Se8
_chemical_formula_sum   'Na1 Cr5 Se8'
_cell_volume   313.85463731
_cell_formula_units_Z   1
loop_
 _symmetry_equiv_pos_site_id
 _symmetry_equiv_pos_as_xyz
  1  'x, y, z'
loop_
 _atom_site_type_symbol
 _atom_site_label
 _atom_site_symmetry_multiplicity
 _atom_site_fract_x
 _atom_site_fract_y
 _atom_site_fract_z
 _atom_site_occupancy
  Na  Na0  1  0.50000000  0.49995600  0.00001600  1
  Cr  Cr1  1  0.00005600  0.99999200  0.00000800  1
  Cr  Cr2  1  0.34331400  0.03046000  0.68719100  1
  Cr  Cr3  1  0.65666400  0.96954900  0.31280600  1
  Cr  Cr4  1  0.29595500  0.66527000  0.59171900  1
  Cr  Cr5  1  0.70401400  0.33473300  0.40827700  1
  Se  Se6  1  0.57576200  0.15119000  0.15225000  1
  Se  Se7  1  0.42429600  0.84882100  0.84774600  1
  Se  Se8  1  0.08091500  0.81240000  0.15996500  1
  Se  Se9  1  0.91905700  0.18761200  0.84003200  1
  Se  Se10  1  0.16897400  0.49035400  0.33892300  1
  Se  Se11  1  0.83101200  0.50964800  0.66107100  1
  Se  Se12  1  0.23677500  0.15353900  0.47396000  1
  Se  Se13  1  0.76320600  0.84647500  0.52603600  1
loop_
 _atom_site_moment_label
 _atom_site_moment_crystalaxis_x
 _atom_site_moment_crystalaxis_y
 _atom_site_moment_crystalaxis_z
  Na0  -0.00000188  0.00000657  0.00100140
  Cr1  -0.00605026  0.02114611  3.22352127
  Cr2  -0.00621191  0.02171106  3.30964206
  Cr3  -0.00621191  0.02171106  3.30964206
  Cr4  -0.00616680  0.02155340  3.28560835
  Cr5  -0.00616680  0.02155340  3.28560835
  Se6  0.00037027  -0.00129412  -0.19727670
  Se7  0.00037027  -0.00129412  -0.19727670
  Se8  0.00038907  -0.00135981  -0.20729074
  Se9  0.00038907  -0.00135981  -0.20729074
  Se10  0.00046049  -0.00160944  -0.24534412
  Se11  0.00046049  -0.00160944  -0.24534412
  Se12  0.00033456  -0.00116931  -0.17825001
  Se13  0.00033456  -0.00116931  -0.17825001
