# generated using pymatgen
data_VTe2
_symmetry_space_group_name_H-M   'P 1'
_cell_length_a   3.43349365
_cell_length_b   8.35664288
_cell_length_c   13.22724770
_cell_angle_alpha   79.83913107
_cell_angle_beta   97.67826609
_cell_angle_gamma   77.73467733
_symmetry_Int_Tables_number   1
_chemical_formula_structural   VTe2
_chemical_formula_sum   'V4 Te8'
_cell_volume   359.22204517
_cell_formula_units_Z   4
loop_
 _symmetry_equiv_pos_site_id
 _symmetry_equiv_pos_as_xyz
  1  'x, y, z'
loop_
 _atom_site_type_symbol
 _atom_site_label
 _atom_site_symmetry_multiplicity
 _atom_site_fract_x
 _atom_site_fract_y
 _atom_site_fract_z
 _atom_site_occupancy
  V  V0  1  0.25255800  0.24712700  0.75284900  1
  V  V1  1  0.49730400  0.50295800  0.49705800  1
  V  V2  1  0.99719300  0.00284300  0.99720700  1
  V  V3  1  0.75282700  0.74703500  0.25289400  1
  Te  Te4  1  0.47568600  0.89966000  0.85311000  1
  Te  Te5  1  0.72269300  0.15718700  0.60461200  1
  Te  Te6  1  0.22273600  0.65721700  0.10463800  1
  Te  Te7  1  0.97589300  0.39961000  0.35305000  1
  Te  Te8  1  0.02661200  0.59285600  0.64528900  1
  Te  Te9  1  0.27498700  0.85030100  0.39699200  1
  Te  Te10  1  0.77487300  0.35028100  0.89694700  1
  Te  Te11  1  0.52663900  0.09292400  0.14535500  1
loop_
 _atom_site_moment_label
 _atom_site_moment_crystalaxis_x
 _atom_site_moment_crystalaxis_y
 _atom_site_moment_crystalaxis_z
  V0  0.27764742  -1.93994090  -0.96888660
  V1  0.27656050  -1.93234653  -0.96509365
  V2  -0.27680203  1.93403417  0.96593653
  V3  -0.27728511  1.93740945  0.96762228
  Te4  0.00362306  -0.02531458  -0.01264315
  Te5  -0.01171457  0.08185049  0.04087951
  Te6  0.01183534  -0.08269431  -0.04130095
  Te7  -0.00362306  0.02531458  0.01264315
  Te8  -0.01171457  0.08185049  0.04087951
  Te9  0.00338153  -0.02362694  -0.01180027
  Te10  -0.00338153  0.02362694  0.01180027
  Te11  0.01171457  -0.08185049  -0.04087951
