# generated using pymatgen
data_CaMnSe2
_symmetry_space_group_name_H-M   'P 1'
_cell_length_a   4.07759373
_cell_length_b   13.41398092
_cell_length_c   4.07755951
_cell_angle_alpha   98.74455718
_cell_angle_beta   60.00575577
_cell_angle_gamma   98.74432197
_symmetry_Int_Tables_number   1
_chemical_formula_structural   CaMnSe2
_chemical_formula_sum   'Ca2 Mn2 Se4'
_cell_volume   190.16052826
_cell_formula_units_Z   2
loop_
 _symmetry_equiv_pos_site_id
 _symmetry_equiv_pos_as_xyz
  1  'x, y, z'
loop_
 _atom_site_type_symbol
 _atom_site_label
 _atom_site_symmetry_multiplicity
 _atom_site_fract_x
 _atom_site_fract_y
 _atom_site_fract_z
 _atom_site_occupancy
  Ca  Ca0  1  0.00004200  0.99999700  0.99996300  1
  Ca  Ca1  1  0.50004100  0.49999700  0.49996500  1
  Mn  Mn2  1  0.24969500  0.75001200  0.25017800  1
  Mn  Mn3  1  0.75010900  0.25000000  0.74999900  1
  Se  Se4  1  0.37854500  0.13507900  0.37848000  1
  Se  Se5  1  0.87854700  0.63507800  0.87848000  1
  Se  Se6  1  0.12150700  0.36491700  0.12146900  1
  Se  Se7  1  0.62151200  0.86491700  0.62146700  1
loop_
 _atom_site_moment_label
 _atom_site_moment_crystalaxis_x
 _atom_site_moment_crystalaxis_y
 _atom_site_moment_crystalaxis_z
  Mn2  -1.34471154  -4.41397517  -1.34473599
  Mn3  1.34471154  4.41397517  1.34473599
  Se4  0.00699308  0.02295458  0.00699321
  Se5  -0.00699308  -0.02295458  -0.00699321
  Se6  0.00699308  0.02295458  0.00699321
  Se7  -0.00699308  -0.02295458  -0.00699321
