# generated using pymatgen
data_FeTe2
_symmetry_space_group_name_H-M   'P 1'
_cell_length_a   4.00812149
_cell_length_b   6.76782164
_cell_length_c   7.22088909
_cell_angle_alpha   61.30817834
_cell_angle_beta   90.13409028
_cell_angle_gamma   72.74384244
_symmetry_Int_Tables_number   1
_chemical_formula_structural   FeTe2
_chemical_formula_sum   'Fe2 Te4'
_cell_volume   161.62243126
_cell_formula_units_Z   2
loop_
 _symmetry_equiv_pos_site_id
 _symmetry_equiv_pos_as_xyz
  1  'x, y, z'
loop_
 _atom_site_type_symbol
 _atom_site_label
 _atom_site_symmetry_multiplicity
 _atom_site_fract_x
 _atom_site_fract_y
 _atom_site_fract_z
 _atom_site_occupancy
  Fe  Fe0  1  0.25044800  0.50015800  0.24996000  1
  Fe  Fe1  1  0.74956700  0.49983900  0.75004000  1
  Te  Te2  1  0.38929800  0.22849900  0.03805800  1
  Te  Te3  1  0.88986700  0.22856500  0.53794500  1
  Te  Te4  1  0.61073200  0.77148100  0.96195700  1
  Te  Te5  1  0.11008600  0.77145900  0.46204000  1
loop_
 _atom_site_moment_label
 _atom_site_moment_crystalaxis_x
 _atom_site_moment_crystalaxis_y
 _atom_site_moment_crystalaxis_z
  Fe0  1.26907956  -4.27118062  2.16366847
  Fe1  -1.26907956  4.27118062  -2.16366847
  Te2  0.00683849  -0.02301544  0.01165902
  Te3  -0.00683849  0.02301544  -0.01165902
  Te4  -0.00683849  0.02301544  -0.01165902
  Te5  0.00683849  -0.02301544  0.01165902
