# generated using pymatgen
data_V3Ga2
_symmetry_space_group_name_H-M   'P 1'
_cell_length_a   6.97456345
_cell_length_b   6.96502590
_cell_length_c   6.97411387
_cell_angle_alpha   90.23039866
_cell_angle_beta   89.62763242
_cell_angle_gamma   90.05250125
_symmetry_Int_Tables_number   1
_chemical_formula_structural   V3Ga2
_chemical_formula_sum   'V12 Ga8'
_cell_volume   338.77858069
_cell_formula_units_Z   4
loop_
 _symmetry_equiv_pos_site_id
 _symmetry_equiv_pos_as_xyz
  1  'x, y, z'
loop_
 _atom_site_type_symbol
 _atom_site_label
 _atom_site_symmetry_multiplicity
 _atom_site_fract_x
 _atom_site_fract_y
 _atom_site_fract_z
 _atom_site_occupancy
  V  V0  1  0.86087900  0.70613300  0.04222700  1
  V  V1  1  0.12388300  0.20274500  0.46248400  1
  V  V2  1  0.64179000  0.29014900  0.53773600  1
  V  V3  1  0.70212200  0.04181500  0.87777700  1
  V  V4  1  0.21047700  0.46276000  0.11711300  1
  V  V5  1  0.29060000  0.54410500  0.63646600  1
  V  V6  1  0.95904300  0.36880800  0.79410100  1
  V  V7  1  0.03412300  0.86941400  0.71110400  1
  V  V8  1  0.45590100  0.14550100  0.20816300  1
  V  V9  1  0.53947500  0.61541600  0.29933500  1
  V  V10  1  0.37912200  0.79131700  0.95944000  1
  V  V11  1  0.79460700  0.96090100  0.36058200  1
  Ga  Ga12  1  0.81676800  0.31831300  0.18334900  1
  Ga  Ga13  1  0.18683900  0.81312300  0.31485300  1
  Ga  Ga14  1  0.31168300  0.18515700  0.81182500  1
  Ga  Ga15  1  0.68445200  0.68690100  0.68400500  1
  Ga  Ga16  1  0.43416700  0.93577900  0.56338100  1
  Ga  Ga17  1  0.93961900  0.56408700  0.43724400  1
  Ga  Ga18  1  0.56799600  0.43229700  0.93198200  1
  Ga  Ga19  1  0.06645500  0.06527900  0.06683100  1
loop_
 _atom_site_moment_label
 _atom_site_moment_crystalaxis_x
 _atom_site_moment_crystalaxis_y
 _atom_site_moment_crystalaxis_z
  V0  -0.00111617  -2.54201622  -0.00513080
  V1  -0.00111837  -2.54701625  -0.00514089
  V2  -0.00110212  -2.51001601  -0.00506621
  V3  -0.00111486  -2.53901620  -0.00512474
  V4  -0.00110564  -2.51801606  -0.00508235
  V5  -0.00111178  -2.53201615  -0.00511061
  V6  0.00110739  2.52201609  0.00509043
  V7  0.00113374  2.58201647  0.00521153
  V8  0.00111749  2.54501624  0.00513685
  V9  0.00110651  2.52001608  0.00508639
  V10  0.00110168  2.50901601  0.00506419
  V11  0.00110564  2.51801606  0.00508235
  Ga12  0.00000132  0.00300002  0.00000606
  Ga13  -0.00000659  -0.01500010  -0.00003028
  Ga14  0.00000439  0.01000006  0.00002018
  Ga15  -0.00000220  -0.00500003  -0.00001009
  Ga16  -0.00000307  -0.00700004  -0.00001413
  Ga17  0.00000746  0.01700011  0.00003431
  Ga18  0.00000132  0.00300002  0.00000606
  Ga19  -0.00000483  -0.01100007  -0.00002220
