# generated using pymatgen
data_Li2CuS2
_symmetry_space_group_name_H-M   'P 1'
_cell_length_a   5.56059085
_cell_length_b   5.92590000
_cell_length_c   11.12621914
_cell_angle_alpha   89.99988866
_cell_angle_beta   90.00041521
_cell_angle_gamma   89.99980125
_symmetry_Int_Tables_number   1
_chemical_formula_structural   Li2CuS2
_chemical_formula_sum   'Li8 Cu4 S8'
_cell_volume   366.62566926
_cell_formula_units_Z   4
loop_
 _symmetry_equiv_pos_site_id
 _symmetry_equiv_pos_as_xyz
  1  'x, y, z'
loop_
 _atom_site_type_symbol
 _atom_site_label
 _atom_site_symmetry_multiplicity
 _atom_site_fract_x
 _atom_site_fract_y
 _atom_site_fract_z
 _atom_site_occupancy
  Li  Li0  1  0.50000000  0.50000000  0.49999700  1
  Li  Li1  1  0.50000000  0.50000000  0.00000300  1
  Li  Li2  1  0.00000100  0.50000000  0.25000000  1
  Li  Li3  1  0.00000000  0.50000000  0.75000000  1
  Li  Li4  1  0.50000000  0.99999900  0.00000400  1
  Li  Li5  1  0.50000000  0.00000000  0.49999600  1
  Li  Li6  1  0.00000000  0.00000000  0.25000000  1
  Li  Li7  1  0.00000000  0.99999900  0.75000000  1
  Cu  Cu8  1  0.50000000  0.00000100  0.75000000  1
  Cu  Cu9  1  0.50000000  0.50000000  0.75000100  1
  Cu  Cu10  1  0.50000000  0.00000000  0.24999900  1
  Cu  Cu11  1  0.50000100  0.50000000  0.25000000  1
  S  S12  1  0.27288400  0.25000200  0.36356800  1
  S  S13  1  0.27289700  0.24999800  0.86358200  1
  S  S14  1  0.27288600  0.75000000  0.13643300  1
  S  S15  1  0.27289700  0.74999900  0.63641700  1
  S  S16  1  0.72711500  0.74999900  0.36356700  1
  S  S17  1  0.72710300  0.75000200  0.86358200  1
  S  S18  1  0.72711600  0.25000000  0.13643300  1
  S  S19  1  0.72710200  0.25000100  0.63641700  1
loop_
 _atom_site_moment_label
 _atom_site_moment_crystalaxis_x
 _atom_site_moment_crystalaxis_y
 _atom_site_moment_crystalaxis_z
  Li2  -0.00070710  0.00000000  0.00070710
  Li3  0.00070710  0.00000000  -0.00070710
  Li6  -0.00070710  0.00000000  0.00070710
  Li7  0.00070710  0.00000000  -0.00070710
  Cu8  -0.19657499  0.00000016  0.19657496
  Cu9  -0.19657499  0.00000016  0.19657496
  Cu10  0.19657499  -0.00000016  -0.19657496
  Cu11  0.19657499  -0.00000016  -0.19657496
  S12  0.13364271  -0.00000011  -0.13364269
  S13  -0.13364271  0.00000011  0.13364269
  S14  0.13364271  -0.00000011  -0.13364269
  S15  -0.13364271  0.00000011  0.13364269
  S16  0.13364271  -0.00000011  -0.13364269
  S17  -0.13364271  0.00000011  0.13364269
  S18  0.13364271  -0.00000011  -0.13364269
  S19  -0.13364271  0.00000011  0.13364269
