# generated using pymatgen
data_K2MnAs2
_symmetry_space_group_name_H-M   'P 1'
_cell_length_a   5.52220093
_cell_length_b   11.79495623
_cell_length_c   15.37460586
_cell_angle_alpha   55.11759557
_cell_angle_beta   64.61736344
_cell_angle_gamma   87.25451014
_symmetry_Int_Tables_number   1
_chemical_formula_structural   K2MnAs2
_chemical_formula_sum   'K8 Mn4 As8'
_cell_volume   715.41531829
_cell_formula_units_Z   4
loop_
 _symmetry_equiv_pos_site_id
 _symmetry_equiv_pos_as_xyz
  1  'x, y, z'
loop_
 _atom_site_type_symbol
 _atom_site_label
 _atom_site_symmetry_multiplicity
 _atom_site_fract_x
 _atom_site_fract_y
 _atom_site_fract_z
 _atom_site_occupancy
  K  K0  1  0.08682000  0.59658300  0.68629500  1
  K  K1  1  0.63479400  0.34140500  0.72175500  1
  K  K2  1  0.09025900  0.09931100  0.68454500  1
  K  K3  1  0.63712400  0.84312100  0.71892600  1
  K  K4  1  0.41412300  0.65547500  0.31248800  1
  K  K5  1  0.86392000  0.40722000  0.28036000  1
  K  K6  1  0.41493100  0.15525400  0.31208200  1
  K  K7  1  0.86365100  0.90645700  0.28212900  1
  Mn  Mn8  1  0.47732700  0.49297200  0.00349100  1
  Mn  Mn9  1  0.02175300  0.25663000  0.99649900  1
  Mn  Mn10  1  0.47559800  0.99053600  0.00426000  1
  Mn  Mn11  1  0.02266500  0.75880400  0.99583800  1
  As  As12  1  0.48955700  0.61467500  0.10688500  1
  As  As13  1  0.11535400  0.23660100  0.15864800  1
  As  As14  1  0.48933800  0.11293400  0.10736100  1
  As  As15  1  0.11130800  0.73523700  0.16051200  1
  As  As16  1  0.00988500  0.63611600  0.89296800  1
  As  As17  1  0.38430300  0.51317800  0.84114000  1
  As  As18  1  0.00911300  0.13359500  0.89430700  1
  As  As19  1  0.38817800  0.01389600  0.83951100  1
loop_
 _atom_site_moment_label
 _atom_site_moment_crystalaxis_x
 _atom_site_moment_crystalaxis_y
 _atom_site_moment_crystalaxis_z
  K1  -0.00041068  -0.00024382  0.00124383
  K3  0.00041068  0.00024382  -0.00124383
  K5  -0.00041068  -0.00024382  0.00124383
  K7  0.00041068  0.00024382  -0.00124383
  Mn8  1.85503605  1.10133568  -5.61837902
  Mn9  1.85503605  1.10133568  -5.61837902
  Mn10  -1.85544673  -1.10157950  5.61962285
  Mn11  -1.85585741  -1.10182332  5.62086668
  As12  -0.00410679  -0.00243820  0.01243830
  As13  -0.05133485  -0.03047752  0.15547872
  As14  0.00410679  0.00243820  -0.01243830
  As15  0.04969213  0.02950224  -0.15050340
  As16  0.00369611  0.00219438  -0.01119447
  As17  -0.05133485  -0.03047752  0.15547872
  As18  -0.00369611  -0.00219438  0.01119447
  As19  0.04969213  0.02950224  -0.15050340
