# generated using pymatgen
data_Li7MnAs4
_symmetry_space_group_name_H-M   'P 1'
_cell_length_a   6.05220700
_cell_length_b   6.32133500
_cell_length_c   25.13014100
_cell_angle_alpha   89.99999544
_cell_angle_beta   89.99998369
_cell_angle_gamma   90.00000906
_symmetry_Int_Tables_number   1
_chemical_formula_structural   Li7MnAs4
_chemical_formula_sum   'Li28 Mn4 As16'
_cell_volume   961.42963642
_cell_formula_units_Z   4
loop_
 _symmetry_equiv_pos_site_id
 _symmetry_equiv_pos_as_xyz
  1  'x, y, z'
loop_
 _atom_site_type_symbol
 _atom_site_label
 _atom_site_symmetry_multiplicity
 _atom_site_fract_x
 _atom_site_fract_y
 _atom_site_fract_z
 _atom_site_occupancy
  Li  Li0  1  0.00000000  0.50000000  0.12518200  1
  Li  Li1  1  0.00000000  0.50000000  0.37485900  1
  Li  Li2  1  0.00000000  0.50000000  0.62509200  1
  Li  Li3  1  0.00000000  0.50000000  0.87487800  1
  Li  Li4  1  0.26782400  0.00003700  0.00000300  1
  Li  Li5  1  0.26825000  0.00001500  0.25001100  1
  Li  Li6  1  0.26783000  0.99997600  0.49999800  1
  Li  Li7  1  0.26821100  0.99997500  0.74998600  1
  Li  Li8  1  0.73217500  0.99996300  0.00000300  1
  Li  Li9  1  0.73175000  0.99998400  0.25001100  1
  Li  Li10  1  0.73217000  0.00002400  0.49999800  1
  Li  Li11  1  0.73178500  0.00002500  0.74998600  1
  Li  Li12  1  0.00000000  0.00000000  0.12532800  1
  Li  Li13  1  0.00000000  0.00000000  0.37470100  1
  Li  Li14  1  0.00000000  0.00000000  0.62523900  1
  Li  Li15  1  0.00000000  0.00000000  0.87473200  1
  Li  Li16  1  0.00000000  0.50000000  0.00003700  1
  Li  Li17  1  0.00000000  0.50000000  0.25001900  1
  Li  Li18  1  0.00000000  0.50000000  0.49997200  1
  Li  Li19  1  0.00000000  0.50000000  0.74997900  1
  Li  Li20  1  0.50000000  0.00000000  0.12518400  1
  Li  Li21  1  0.50000000  0.00000000  0.37484500  1
  Li  Li22  1  0.50000000  0.00000000  0.62510300  1
  Li  Li23  1  0.50000000  0.00000000  0.87487600  1
  Li  Li24  1  0.50000000  0.50000000  0.00003200  1
  Li  Li25  1  0.50000000  0.50000000  0.25001700  1
  Li  Li26  1  0.50000000  0.50000100  0.49996700  1
  Li  Li27  1  0.50000000  0.50000000  0.74997800  1
  Mn  Mn28  1  0.50000000  0.49999900  0.62467300  1
  Mn  Mn29  1  0.50000000  0.50000000  0.87528000  1
  Mn  Mn30  1  0.50000000  0.50000000  0.12473600  1
  Mn  Mn31  1  0.50000000  0.50000000  0.37529400  1
  As  As32  1  0.25374700  0.72847800  0.18198200  1
  As  As33  1  0.25225600  0.73013600  0.43186200  1
  As  As34  1  0.25387200  0.72843200  0.68190700  1
  As  As35  1  0.25233300  0.73012100  0.93186800  1
  As  As36  1  0.25226800  0.26985700  0.06815100  1
  As  As37  1  0.25375200  0.27149800  0.31806600  1
  As  As38  1  0.25231400  0.26984300  0.56811800  1
  As  As39  1  0.25387700  0.27159000  0.81804700  1
  As  As40  1  0.74625300  0.27152200  0.18198200  1
  As  As41  1  0.74774300  0.26986400  0.43186200  1
  As  As42  1  0.74612900  0.27156800  0.68190700  1
  As  As43  1  0.74766700  0.26987900  0.93186800  1
  As  As44  1  0.74773200  0.73014300  0.06815100  1
  As  As45  1  0.74624800  0.72850200  0.31806600  1
  As  As46  1  0.74768600  0.73015700  0.56811800  1
  As  As47  1  0.74612300  0.72841000  0.81804700  1
loop_
 _atom_site_moment_label
 _atom_site_moment_crystalaxis_x
 _atom_site_moment_crystalaxis_y
 _atom_site_moment_crystalaxis_z
  Li0  0.00000000  0.00000000  -0.00400000
  Li1  0.00000000  0.00000000  -0.00400000
  Li2  0.00000000  0.00000000  0.00400000
  Li3  0.00000000  0.00000000  0.00400000
  Li5  0.00000000  0.00000000  -0.00400000
  Li7  0.00000000  0.00000000  0.00400000
  Li9  0.00000000  0.00000000  -0.00400000
  Li11  0.00000000  0.00000000  0.00400000
  Li17  0.00000000  0.00000000  -0.00100000
  Li19  0.00000000  0.00000000  0.00100000
  Li20  0.00000000  0.00000000  -0.00300000
  Li21  0.00000000  0.00000000  -0.00300000
  Li22  0.00000000  0.00000000  0.00300000
  Li23  0.00000000  0.00000000  0.00300000
  Li25  0.00000000  0.00000000  -0.00400000
  Li27  0.00000000  0.00000000  0.00400000
  Mn28  0.00000051  0.00000034  -4.25500000
  Mn29  0.00000051  0.00000034  -4.25600000
  Mn30  -0.00000051  -0.00000034  4.25700000
  Mn31  -0.00000051  -0.00000034  4.25700000
  As32  0.00000003  0.00000002  -0.26200000
  As33  0.00000003  0.00000002  -0.21800000
  As34  -0.00000003  -0.00000002  0.26200000
  As35  -0.00000003  -0.00000002  0.21900000
  As36  0.00000003  0.00000002  -0.21800000
  As37  0.00000003  0.00000002  -0.26000000
  As38  -0.00000003  -0.00000002  0.21800000
  As39  -0.00000003  -0.00000002  0.26000000
  As40  0.00000003  0.00000002  -0.26200000
  As41  0.00000003  0.00000002  -0.21800000
  As42  -0.00000003  -0.00000002  0.26200000
  As43  -0.00000003  -0.00000002  0.21900000
  As44  0.00000003  0.00000002  -0.21800000
  As45  0.00000003  0.00000002  -0.26000000
  As46  -0.00000003  -0.00000002  0.21800000
  As47  -0.00000003  -0.00000002  0.26000000
