# generated using pymatgen
data_NaFeAs
_symmetry_space_group_name_H-M   'P 1'
_cell_length_a   5.76843345
_cell_length_b   5.93429601
_cell_length_c   7.89847851
_cell_angle_alpha   100.53845238
_cell_angle_beta   100.19696522
_cell_angle_gamma   91.81136272
_symmetry_Int_Tables_number   1
_chemical_formula_structural   NaFeAs
_chemical_formula_sum   'Na4 Fe4 As4'
_cell_volume   261.04561134
_cell_formula_units_Z   4
loop_
 _symmetry_equiv_pos_site_id
 _symmetry_equiv_pos_as_xyz
  1  'x, y, z'
loop_
 _atom_site_type_symbol
 _atom_site_label
 _atom_site_symmetry_multiplicity
 _atom_site_fract_x
 _atom_site_fract_y
 _atom_site_fract_z
 _atom_site_occupancy
  Na  Na0  1  0.66754000  0.41850800  0.17650600  1
  Na  Na1  1  0.16759900  0.91938900  0.17675800  1
  Na  Na2  1  0.82951200  0.08137800  0.82340800  1
  Na  Na3  1  0.32944300  0.58054400  0.82332500  1
  Fe  Fe4  1  0.49544700  0.24916700  0.49772500  1
  Fe  Fe5  1  0.99654100  0.25054300  0.50220200  1
  Fe  Fe6  1  0.01142000  0.74951200  0.49804800  1
  Fe  Fe7  1  0.51243300  0.75039100  0.50193800  1
  As  As8  1  0.79848600  0.54930400  0.70404200  1
  As  As9  1  0.29887800  0.05372900  0.70454300  1
  As  As10  1  0.69639100  0.95062700  0.29550100  1
  As  As11  1  0.19630800  0.44691000  0.29600400  1
loop_
 _atom_site_moment_label
 _atom_site_moment_crystalaxis_x
 _atom_site_moment_crystalaxis_y
 _atom_site_moment_crystalaxis_z
  Fe4  -1.25763412  -1.27678794  -3.42742115
  Fe5  -1.25800131  -1.27716073  -3.42842186
  Fe6  1.25873570  1.27790630  3.43042327
  Fe7  1.25873570  1.27790630  3.43042327
  As8  -0.00036719  -0.00037278  -0.00100071
  As9  -0.00036719  -0.00037278  -0.00100071
  As11  -0.00073438  -0.00074557  -0.00200141
