# generated using pymatgen
data_CsCr5S8
_symmetry_space_group_name_H-M   'P 1'
_cell_length_a   3.55331832
_cell_length_b   11.52908321
_cell_length_c   14.46551014
_cell_angle_alpha   87.21671299
_cell_angle_beta   97.04135598
_cell_angle_gamma   98.87133412
_symmetry_Int_Tables_number   1
_chemical_formula_structural   CsCr5S8
_chemical_formula_sum   'Cs2 Cr10 S16'
_cell_volume   580.83040999
_cell_formula_units_Z   2
loop_
 _symmetry_equiv_pos_site_id
 _symmetry_equiv_pos_as_xyz
  1  'x, y, z'
loop_
 _atom_site_type_symbol
 _atom_site_label
 _atom_site_symmetry_multiplicity
 _atom_site_fract_x
 _atom_site_fract_y
 _atom_site_fract_z
 _atom_site_occupancy
  Cs  Cs0  1  0.99997800  0.24996900  0.74999100  1
  Cs  Cs1  1  0.00001900  0.75002900  0.25000700  1
  Cr  Cr2  1  0.00000000  0.50000100  0.50000100  1
  Cr  Cr3  1  0.33785100  0.34304300  0.33280100  1
  Cr  Cr4  1  0.66215000  0.65695800  0.66719200  1
  Cr  Cr5  1  0.29469000  0.62768500  0.96169400  1
  Cr  Cr6  1  0.70530400  0.37231000  0.03830300  1
  Cr  Cr7  1  0.00000100  0.00000100  0.00000100  1
  Cr  Cr8  1  0.33784900  0.84304500  0.83282300  1
  Cr  Cr9  1  0.66216900  0.15696100  0.16718700  1
  Cr  Cr10  1  0.29468800  0.12768900  0.46168600  1
  Cr  Cr11  1  0.70530700  0.87230500  0.53831600  1
  S  S12  1  0.57447900  0.15096800  0.99789200  1
  S  S13  1  0.57448000  0.65097600  0.49789200  1
  S  S14  1  0.42552200  0.84903000  0.00211000  1
  S  S15  1  0.42551700  0.34902100  0.50210600  1
  S  S16  1  0.09352100  0.51911700  0.66800300  1
  S  S17  1  0.09352000  0.01912700  0.16799200  1
  S  S18  1  0.90648100  0.48088600  0.33199500  1
  S  S19  1  0.90648200  0.98087800  0.83200900  1
  S  S20  1  0.17732400  0.42184100  0.93267300  1
  S  S21  1  0.17732900  0.92184800  0.43269000  1
  S  S22  1  0.82267000  0.57815500  0.06732500  1
  S  S23  1  0.82266900  0.07815000  0.56730900  1
  S  S24  1  0.23889000  0.31750300  0.16012300  1
  S  S25  1  0.23889500  0.81750700  0.66013000  1
  S  S26  1  0.76111000  0.68249900  0.83987800  1
  S  S27  1  0.76110500  0.18249400  0.33987200  1
loop_
 _atom_site_moment_label
 _atom_site_moment_crystalaxis_x
 _atom_site_moment_crystalaxis_y
 _atom_site_moment_crystalaxis_z
  Cr2  0.00039598  -1.92158874  -2.40433660
  Cr3  0.00039171  -1.90084778  -2.37838503
  Cr4  0.00039171  -1.90084778  -2.37838503
  Cr5  0.00039887  -1.93561939  -2.42189207
  Cr6  0.00039887  -1.93561939  -2.42189207
  Cr7  -0.00039586  1.92097871  2.40357332
  Cr8  -0.00039171  1.90084778  2.37838503
  Cr9  -0.00039171  1.90084778  2.37838503
  Cr10  -0.00039887  1.93561939  2.42189207
  Cr11  -0.00039887  1.93561939  2.42189207
  S12  0.00001307  -0.06344293  -0.07938127
  S13  -0.00001307  0.06344293  0.07938127
  S14  0.00001307  -0.06344293  -0.07938127
  S15  -0.00001307  0.06344293  0.07938127
  S16  -0.00001974  0.09577442  0.11983519
  S17  0.00001974  -0.09577442  -0.11983519
  S18  -0.00001974  0.09577442  0.11983519
  S19  0.00001974  -0.09577442  -0.11983519
  S20  -0.00002489  0.12078558  0.15112973
  S21  0.00002489  -0.12078558  -0.15112973
  S22  -0.00002489  0.12078558  0.15112973
  S23  0.00002489  -0.12078558  -0.15112973
  S24  -0.00000264  0.01281059  0.01602891
  S25  0.00000264  -0.01281059  -0.01602891
  S26  -0.00000264  0.01281059  0.01602891
  S27  0.00000264  -0.01281059  -0.01602891
