# generated using pymatgen
data_LiCo2Ge
_symmetry_space_group_name_H-M   'P 1'
_cell_length_a   3.96635073
_cell_length_b   3.96529631
_cell_length_c   6.85108679
_cell_angle_alpha   90.00146392
_cell_angle_beta   73.22153098
_cell_angle_gamma   60.00896481
_symmetry_Int_Tables_number   1
_chemical_formula_structural   LiCo2Ge
_chemical_formula_sum   'Li2 Co4 Ge2'
_cell_volume   87.98789136
_cell_formula_units_Z   2
loop_
 _symmetry_equiv_pos_site_id
 _symmetry_equiv_pos_as_xyz
  1  'x, y, z'
loop_
 _atom_site_type_symbol
 _atom_site_label
 _atom_site_symmetry_multiplicity
 _atom_site_fract_x
 _atom_site_fract_y
 _atom_site_fract_z
 _atom_site_occupancy
  Li  Li0  1  0.49998100  0.75000900  0.25002900  1
  Li  Li1  1  0.50001700  0.24999100  0.74997400  1
  Co  Co2  1  0.75073900  0.62462500  0.87343600  1
  Co  Co3  1  0.24927200  0.87537000  0.62654800  1
  Co  Co4  1  0.75073700  0.12462600  0.37343600  1
  Co  Co5  1  0.24925400  0.37537900  0.12657700  1
  Ge  Ge6  1  0.00000500  0.99999800  0.99999300  1
  Ge  Ge7  1  0.99999500  0.50000200  0.50000800  1
loop_
 _atom_site_moment_label
 _atom_site_moment_crystalaxis_x
 _atom_site_moment_crystalaxis_y
 _atom_site_moment_crystalaxis_z
  Li0  0.00000209  -0.00200109  -0.00346473
  Li1  -0.00000209  0.00200109  0.00346473
  Co2  0.00035349  -0.33818413  -0.58553950
  Co3  0.00035193  -0.33668332  -0.58294095
  Co4  -0.00035349  0.33818413  0.58553950
  Co5  -0.00035140  0.33618304  0.58207477
