# generated using pymatgen
data_CsMnAs
_symmetry_space_group_name_H-M   'P 1'
_cell_length_a   4.58841000
_cell_length_b   4.58780600
_cell_length_c   18.44547800
_cell_angle_alpha   89.99994707
_cell_angle_beta   89.99994396
_cell_angle_gamma   90.00179826
_symmetry_Int_Tables_number   1
_chemical_formula_structural   CsMnAs
_chemical_formula_sum   'Cs4 Mn4 As4'
_cell_volume   388.29086791
_cell_formula_units_Z   4
loop_
 _symmetry_equiv_pos_site_id
 _symmetry_equiv_pos_as_xyz
  1  'x, y, z'
loop_
 _atom_site_type_symbol
 _atom_site_label
 _atom_site_symmetry_multiplicity
 _atom_site_fract_x
 _atom_site_fract_y
 _atom_site_fract_z
 _atom_site_occupancy
  Cs  Cs0  1  0.00000000  0.50000000  0.33163300  1
  Cs  Cs1  1  0.00000000  0.50000000  0.83163200  1
  Cs  Cs2  1  0.50000000  0.99999900  0.16836800  1
  Cs  Cs3  1  0.50000000  0.00000000  0.66836800  1
  Mn  Mn4  1  0.50000000  0.50000000  0.49997600  1
  Mn  Mn5  1  0.00000000  0.00000000  0.00002400  1
  Mn  Mn6  1  0.50000000  0.50000000  0.99997700  1
  Mn  Mn7  1  0.00000000  0.00000000  0.50002300  1
  As  As8  1  0.00000000  0.50000000  0.07957400  1
  As  As9  1  0.00000000  0.50000000  0.57957400  1
  As  As10  1  0.50000000  0.00000100  0.42042600  1
  As  As11  1  0.50000000  0.00000000  0.92042600  1
loop_
 _atom_site_moment_label
 _atom_site_moment_crystalaxis_x
 _atom_site_moment_crystalaxis_y
 _atom_site_moment_crystalaxis_z
  Mn4  0.00000246  0.00000221  -4.53100000
  Mn5  0.00000246  0.00000221  -4.53100000
  Mn6  -0.00000246  -0.00000221  4.53100000
  Mn7  -0.00000246  -0.00000221  4.53100000
