# generated using pymatgen
data_GaFe2
_symmetry_space_group_name_H-M   'P 1'
_cell_length_a   2.63793606
_cell_length_b   12.29478690
_cell_length_c   2.64098121
_cell_angle_alpha   90.27079365
_cell_angle_beta   90.79799906
_cell_angle_gamma   89.74717511
_symmetry_Int_Tables_number   1
_chemical_formula_structural   GaFe2
_chemical_formula_sum   'Ga2 Fe4'
_cell_volume   85.64450482
_cell_formula_units_Z   2
loop_
 _symmetry_equiv_pos_site_id
 _symmetry_equiv_pos_as_xyz
  1  'x, y, z'
loop_
 _atom_site_type_symbol
 _atom_site_label
 _atom_site_symmetry_multiplicity
 _atom_site_fract_x
 _atom_site_fract_y
 _atom_site_fract_z
 _atom_site_occupancy
  Ga  Ga0  1  0.99797800  0.00030000  0.00198800  1
  Ga  Ga1  1  0.49943800  0.49972600  0.49955200  1
  Fe  Fe2  1  0.50478300  0.83435200  0.49648800  1
  Fe  Fe3  1  0.99907900  0.66548200  0.00180800  1
  Fe  Fe4  1  0.00481700  0.33422800  0.99453000  1
  Fe  Fe5  1  0.49390500  0.16591200  0.50563400  1
loop_
 _atom_site_moment_label
 _atom_site_moment_crystalaxis_x
 _atom_site_moment_crystalaxis_y
 _atom_site_moment_crystalaxis_z
  Fe2  -3.19576362  0.01008668  0.52630239
  Fe3  -3.19477910  0.01008357  0.52614025
  Fe4  3.19281005  -0.01007736  -0.52581598
  Fe5  3.19379458  -0.01008047  -0.52597811
