# generated using pymatgen
data_SrMnSb2
_symmetry_space_group_name_H-M   'P 1'
_cell_length_a   4.49843566
_cell_length_b   4.49844422
_cell_length_c   23.55955514
_cell_angle_alpha   89.50385315
_cell_angle_beta   90.51062082
_cell_angle_gamma   90.12930568
_symmetry_Int_Tables_number   1
_chemical_formula_structural   SrMnSb2
_chemical_formula_sum   'Sr4 Mn4 Sb8'
_cell_volume   476.71232163
_cell_formula_units_Z   4
loop_
 _symmetry_equiv_pos_site_id
 _symmetry_equiv_pos_as_xyz
  1  'x, y, z'
loop_
 _atom_site_type_symbol
 _atom_site_label
 _atom_site_symmetry_multiplicity
 _atom_site_fract_x
 _atom_site_fract_y
 _atom_site_fract_z
 _atom_site_occupancy
  Sr  Sr0  1  0.99664300  0.50857800  0.11173800  1
  Sr  Sr1  1  0.99073100  0.50253500  0.61168400  1
  Sr  Sr2  1  0.50927200  0.99746300  0.38832100  1
  Sr  Sr3  1  0.50335500  0.99142400  0.88825600  1
  Mn  Mn4  1  0.00037100  0.00015400  0.74995200  1
  Mn  Mn5  1  0.49961700  0.49983900  0.25004400  1
  Mn  Mn6  1  0.00079900  0.00079300  0.25002000  1
  Mn  Mn7  1  0.49921400  0.49922300  0.74997700  1
  Sb  Sb8  1  0.00096800  0.03529200  0.00070000  1
  Sb  Sb9  1  0.03479600  0.00098500  0.49910700  1
  Sb  Sb10  1  0.49902700  0.46470000  0.99928600  1
  Sb  Sb11  1  0.46522100  0.49899500  0.50091600  1
  Sb  Sb12  1  0.00451300  0.49734300  0.32549700  1
  Sb  Sb13  1  0.00326100  0.49591200  0.82545400  1
  Sb  Sb14  1  0.49675300  0.00408100  0.17454200  1
  Sb  Sb15  1  0.49546000  0.00268300  0.67450500  1
loop_
 _atom_site_moment_label
 _atom_site_moment_crystalaxis_x
 _atom_site_moment_crystalaxis_y
 _atom_site_moment_crystalaxis_z
  Mn4  -0.02096343  0.02037671  -4.51426840
  Mn5  -0.02096343  0.02037671  -4.51426840
  Mn6  0.02096343  -0.02037671  4.51426840
  Mn7  0.02096343  -0.02037671  4.51426840
