# generated using pymatgen
data_RbMnBi
_symmetry_space_group_name_H-M   'P 1'
_cell_length_a   4.97247803
_cell_length_b   4.97641805
_cell_length_c   8.84441305
_cell_angle_alpha   89.98778022
_cell_angle_beta   89.99831751
_cell_angle_gamma   89.98845885
_symmetry_Int_Tables_number   1
_chemical_formula_structural   RbMnBi
_chemical_formula_sum   'Rb2 Mn2 Bi2'
_cell_volume   218.85613607
_cell_formula_units_Z   2
loop_
 _symmetry_equiv_pos_site_id
 _symmetry_equiv_pos_as_xyz
  1  'x, y, z'
loop_
 _atom_site_type_symbol
 _atom_site_label
 _atom_site_symmetry_multiplicity
 _atom_site_fract_x
 _atom_site_fract_y
 _atom_site_fract_z
 _atom_site_occupancy
  Rb  Rb0  1  0.99999700  0.49999500  0.34499800  1
  Rb  Rb1  1  0.50001400  0.00000500  0.65499900  1
  Mn  Mn2  1  0.49993700  0.49999800  0.00005100  1
  Mn  Mn3  1  0.00005400  0.00000300  0.99995400  1
  Bi  Bi4  1  0.99998700  0.50005500  0.80889500  1
  Bi  Bi5  1  0.50001200  0.99994500  0.19110400  1
loop_
 _atom_site_moment_label
 _atom_site_moment_crystalaxis_x
 _atom_site_moment_crystalaxis_y
 _atom_site_moment_crystalaxis_z
  Mn2  0.00006642  0.00048763  -4.59300008
  Mn3  -0.00006642  -0.00048763  4.59300008
