# generated using pymatgen
data_Mg14CoSn
_symmetry_space_group_name_H-M   'P 1'
_cell_length_a   6.27739323
_cell_length_b   6.27697542
_cell_length_c   20.45202619
_cell_angle_alpha   90.00857140
_cell_angle_beta   89.99315486
_cell_angle_gamma   59.96781797
_symmetry_Int_Tables_number   1
_chemical_formula_structural   Mg14CoSn
_chemical_formula_sum   'Mg28 Co2 Sn2'
_cell_volume   697.67922453
_cell_formula_units_Z   2
loop_
 _symmetry_equiv_pos_site_id
 _symmetry_equiv_pos_as_xyz
  1  'x, y, z'
loop_
 _atom_site_type_symbol
 _atom_site_label
 _atom_site_symmetry_multiplicity
 _atom_site_fract_x
 _atom_site_fract_y
 _atom_site_fract_z
 _atom_site_occupancy
  Mg  Mg0  1  0.66676400  0.66678400  0.37506000  1
  Mg  Mg1  1  0.66667400  0.66660500  0.87507100  1
  Mg  Mg2  1  0.66669000  0.66659300  0.12495100  1
  Mg  Mg3  1  0.66684100  0.66667300  0.62491800  1
  Mg  Mg4  1  0.50197300  0.50228600  0.00001600  1
  Mg  Mg5  1  0.50216000  0.50237300  0.49998700  1
  Mg  Mg6  1  0.99550300  0.50292300  0.00001500  1
  Mg  Mg7  1  0.99565700  0.50143300  0.49998900  1
  Mg  Mg8  1  0.50274300  0.99543000  0.00001400  1
  Mg  Mg9  1  0.50136600  0.99559200  0.49998800  1
  Mg  Mg10  1  0.49930300  0.49926000  0.25004300  1
  Mg  Mg11  1  0.49929100  0.49927100  0.74995300  1
  Mg  Mg12  1  0.00147900  0.49925700  0.25009900  1
  Mg  Mg13  1  0.00149400  0.49923700  0.74989400  1
  Mg  Mg14  1  0.49927000  0.00145000  0.25010100  1
  Mg  Mg15  1  0.49930000  0.00141300  0.74990500  1
  Mg  Mg16  1  0.16277800  0.67453200  0.38159100  1
  Mg  Mg17  1  0.16321900  0.67354400  0.88137200  1
  Mg  Mg18  1  0.16319500  0.67354200  0.11866500  1
  Mg  Mg19  1  0.16286000  0.67432800  0.61844900  1
  Mg  Mg20  1  0.67428400  0.16289900  0.38149800  1
  Mg  Mg21  1  0.67355200  0.16317800  0.88135600  1
  Mg  Mg22  1  0.67355500  0.16321400  0.11865300  1
  Mg  Mg23  1  0.67450600  0.16280600  0.61841300  1
  Mg  Mg24  1  0.16278800  0.16277600  0.38160100  1
  Mg  Mg25  1  0.16328600  0.16323400  0.88130100  1
  Mg  Mg26  1  0.16326100  0.16326600  0.11871300  1
  Mg  Mg27  1  0.16274800  0.16283000  0.61837900  1
  Co  Co28  1  0.00045500  0.00024900  0.49999600  1
  Co  Co29  1  0.99977100  0.99978300  0.00001000  1
  Sn  Sn30  1  0.00000800  0.99991900  0.25023500  1
  Sn  Sn31  1  0.99989200  0.99999000  0.74976500  1
loop_
 _atom_site_moment_label
 _atom_site_moment_crystalaxis_x
 _atom_site_moment_crystalaxis_y
 _atom_site_moment_crystalaxis_z
  Mg0  0.00000013  -0.00000014  -0.00100000
  Mg1  -0.00000013  0.00000014  0.00100000
  Mg2  -0.00000013  0.00000014  0.00100000
  Mg3  0.00000013  -0.00000014  -0.00100000
  Mg4  0.00000077  -0.00000084  -0.00600000
  Mg5  -0.00000103  0.00000112  0.00800000
  Mg6  0.00000090  -0.00000098  -0.00700000
  Mg7  -0.00000103  0.00000112  0.00800000
  Mg8  0.00000142  -0.00000154  -0.01100000
  Mg9  -0.00000103  0.00000112  0.00800000
  Mg16  -0.00000052  0.00000056  0.00400000
  Mg17  0.00000052  -0.00000056  -0.00400000
  Mg18  0.00000052  -0.00000056  -0.00400000
  Mg19  -0.00000052  0.00000056  0.00400000
  Mg20  -0.00000052  0.00000056  0.00400000
  Mg21  0.00000052  -0.00000056  -0.00400000
  Mg22  0.00000052  -0.00000056  -0.00400000
  Mg23  -0.00000052  0.00000056  0.00400000
  Mg24  -0.00000052  0.00000056  0.00400000
  Mg25  0.00000052  -0.00000056  -0.00400000
  Mg26  0.00000052  -0.00000056  -0.00400000
  Mg27  -0.00000052  0.00000056  0.00400000
  Co28  0.00023553  -0.00025535  -1.82800005
  Co29  -0.00022883  0.00024808  1.77600005
  Sn30  0.00000026  -0.00000028  -0.00200000
  Sn31  0.00000013  -0.00000014  -0.00100000
