# generated using pymatgen
data_CaMn2Te3
_symmetry_space_group_name_H-M   'P 1'
_cell_length_a   4.32123700
_cell_length_b   4.32124115
_cell_length_c   21.23231800
_cell_angle_alpha   90.00108304
_cell_angle_beta   90.00061259
_cell_angle_gamma   60.00100465
_symmetry_Int_Tables_number   1
_chemical_formula_structural   CaMn2Te3
_chemical_formula_sum   'Ca2 Mn4 Te6'
_cell_volume   343.35946827
_cell_formula_units_Z   2
loop_
 _symmetry_equiv_pos_site_id
 _symmetry_equiv_pos_as_xyz
  1  'x, y, z'
loop_
 _atom_site_type_symbol
 _atom_site_label
 _atom_site_symmetry_multiplicity
 _atom_site_fract_x
 _atom_site_fract_y
 _atom_site_fract_z
 _atom_site_occupancy
  Ca  Ca0  1  0.00000900  0.99994700  0.99999500  1
  Ca  Ca1  1  0.00000700  0.99995000  0.49999800  1
  Mn  Mn2  1  0.33361700  0.33308700  0.67007800  1
  Mn  Mn3  1  0.66625900  0.66668900  0.82989300  1
  Mn  Mn4  1  0.33372100  0.33332100  0.17009000  1
  Mn  Mn5  1  0.66634800  0.66722800  0.32998100  1
  Te  Te6  1  0.00000800  0.99997700  0.25000200  1
  Te  Te7  1  0.00000200  0.99995300  0.74999000  1
  Te  Te8  1  0.33332600  0.33331500  0.40743700  1
  Te  Te9  1  0.33332400  0.33328200  0.90742100  1
  Te  Te10  1  0.66668900  0.66662800  0.09255900  1
  Te  Te11  1  0.66668900  0.66662300  0.59255600  1
loop_
 _atom_site_moment_label
 _atom_site_moment_crystalaxis_x
 _atom_site_moment_crystalaxis_y
 _atom_site_moment_crystalaxis_z
  Mn2  -0.00000408  -0.00004148  -4.62300000
  Mn3  -0.00000408  -0.00004148  -4.62300000
  Mn4  0.00000408  0.00004148  4.62300000
  Mn5  0.00000408  0.00004148  4.62300000
  Te6  0.00000001  0.00000013  0.01500000
  Te7  -0.00000001  -0.00000013  -0.01500000
  Te8  0.00000001  0.00000014  0.01600000
  Te9  -0.00000001  -0.00000014  -0.01600000
  Te10  0.00000001  0.00000014  0.01600000
  Te11  -0.00000001  -0.00000014  -0.01600000
