# generated using pymatgen
data_Li2CoSb
_symmetry_space_group_name_H-M   'P 1'
_cell_length_a   4.44980892
_cell_length_b   7.72395203
_cell_length_c   4.44978903
_cell_angle_alpha   106.76184186
_cell_angle_beta   120.03812383
_cell_angle_gamma   73.23752119
_symmetry_Int_Tables_number   1
_chemical_formula_structural   Li2CoSb
_chemical_formula_sum   'Li4 Co2 Sb2'
_cell_volume   124.84465619
_cell_formula_units_Z   2
loop_
 _symmetry_equiv_pos_site_id
 _symmetry_equiv_pos_as_xyz
  1  'x, y, z'
loop_
 _atom_site_type_symbol
 _atom_site_label
 _atom_site_symmetry_multiplicity
 _atom_site_fract_x
 _atom_site_fract_y
 _atom_site_fract_z
 _atom_site_occupancy
  Li  Li0  1  0.87496100  0.37510100  0.12503600  1
  Li  Li1  1  0.37496200  0.87510000  0.62503600  1
  Li  Li2  1  0.62503800  0.12490000  0.37496300  1
  Li  Li3  1  0.12503900  0.62490000  0.87496400  1
  Co  Co4  1  0.50000000  0.50000000  0.50000000  1
  Co  Co5  1  0.00000000  0.00000000  0.00000000  1
  Sb  Sb6  1  0.25000000  0.24999800  0.74999900  1
  Sb  Sb7  1  0.75000100  0.75000200  0.25000100  1
loop_
 _atom_site_moment_label
 _atom_site_moment_crystalaxis_x
 _atom_site_moment_crystalaxis_y
 _atom_site_moment_crystalaxis_z
  Li0  0.00050058  0.00086585  0.00049999
  Li1  -0.00050058  -0.00086585  -0.00049999
  Li2  -0.00050058  -0.00086585  -0.00049999
  Li3  0.00050058  0.00086585  0.00049999
  Co4  -0.90754399  -1.56979350  -0.90648245
  Co5  0.90804456  1.57065935  0.90698244
