# generated using pymatgen
data_K(FeSb3)4
_symmetry_space_group_name_H-M   'P 1'
_cell_length_a   8.47672975
_cell_length_b   8.47781164
_cell_length_c   8.39963503
_cell_angle_alpha   70.98493080
_cell_angle_beta   109.54754706
_cell_angle_gamma   69.75898649
_symmetry_Int_Tables_number   1
_chemical_formula_structural   K(FeSb3)4
_chemical_formula_sum   'K1 Fe4 Sb12'
_cell_volume   462.38664728
_cell_formula_units_Z   1
loop_
 _symmetry_equiv_pos_site_id
 _symmetry_equiv_pos_as_xyz
  1  'x, y, z'
loop_
 _atom_site_type_symbol
 _atom_site_label
 _atom_site_symmetry_multiplicity
 _atom_site_fract_x
 _atom_site_fract_y
 _atom_site_fract_z
 _atom_site_occupancy
  K  K0  1  0.00000100  0.99999800  0.99999800  1
  Fe  Fe1  1  0.50000000  0.00000000  0.99999900  1
  Fe  Fe2  1  0.99999900  0.50000000  0.00000100  1
  Fe  Fe3  1  0.50000400  0.49999800  0.50000200  1
  Fe  Fe4  1  0.99999900  0.00000100  0.49999900  1
  Sb  Sb5  1  0.34721000  0.49993800  0.14642200  1
  Sb  Sb6  1  0.65278700  0.50006100  0.85357900  1
  Sb  Sb7  1  0.35392000  0.79935900  0.85342900  1
  Sb  Sb8  1  0.64607800  0.20064300  0.14656900  1
  Sb  Sb9  1  0.50277500  0.85150100  0.34723100  1
  Sb  Sb10  1  0.49722500  0.14849900  0.65276800  1
  Sb  Sb11  1  0.19834600  0.15574500  0.34723800  1
  Sb  Sb12  1  0.80165300  0.84425600  0.65276300  1
  Sb  Sb13  1  0.15329500  0.64867200  0.50462800  1
  Sb  Sb14  1  0.84670900  0.35132800  0.49537200  1
  Sb  Sb15  1  0.15103600  0.35053000  0.80047500  1
  Sb  Sb16  1  0.84896300  0.64947200  0.19952600  1
loop_
 _atom_site_moment_label
 _atom_site_moment_crystalaxis_x
 _atom_site_moment_crystalaxis_y
 _atom_site_moment_crystalaxis_z
  Fe1  -3.23853944  0.02886722  -0.01087686
  Fe2  -3.24255623  0.02890302  -0.01089035
  Fe3  3.30883331  -0.02949379  0.01111295
  Fe4  3.30883331  -0.02949379  0.01111295
  Sb5  0.00301259  -0.00002685  0.00001012
  Sb6  0.00301259  -0.00002685  0.00001012
  Sb7  0.00401679  -0.00003580  0.00001349
  Sb8  0.00401679  -0.00003580  0.00001349
  Sb9  0.00602519  -0.00005371  0.00002024
  Sb10  0.00602519  -0.00005371  0.00002024
  Sb11  0.00502099  -0.00004476  0.00001686
  Sb12  0.00502099  -0.00004476  0.00001686
  Sb13  -0.05121411  0.00045650  -0.00017201
  Sb14  -0.05121411  0.00045650  -0.00017201
  Sb15  0.05723930  -0.00051021  0.00019224
  Sb16  0.05723930  -0.00051021  0.00019224
