# generated using pymatgen
data_Ca(MnAl3)3
_symmetry_space_group_name_H-M   'P 1'
_cell_length_a   5.42000412
_cell_length_b   7.06380055
_cell_length_c   13.19812613
_cell_angle_alpha   89.99996921
_cell_angle_beta   89.99974455
_cell_angle_gamma   68.30272542
_symmetry_Int_Tables_number   1
_chemical_formula_structural   Ca(MnAl3)3
_chemical_formula_sum   'Ca2 Mn6 Al18'
_cell_volume   469.50067924
_cell_formula_units_Z   2
loop_
 _symmetry_equiv_pos_site_id
 _symmetry_equiv_pos_as_xyz
  1  'x, y, z'
loop_
 _atom_site_type_symbol
 _atom_site_label
 _atom_site_symmetry_multiplicity
 _atom_site_fract_x
 _atom_site_fract_y
 _atom_site_fract_z
 _atom_site_occupancy
  Ca  Ca0  1  0.00000100  0.00000000  0.99993400  1
  Ca  Ca1  1  0.50000100  0.00000000  0.49992400  1
  Mn  Mn2  1  0.99999600  0.50000200  0.49991800  1
  Mn  Mn3  1  0.24881500  0.00261000  0.74940800  1
  Mn  Mn4  1  0.75119400  0.99738000  0.74940700  1
  Mn  Mn5  1  0.49998200  0.50000500  0.99993400  1
  Mn  Mn6  1  0.74877200  0.00263600  0.24941000  1
  Mn  Mn7  1  0.25122500  0.99736700  0.24941000  1
  Al  Al8  1  0.00000100  0.50000000  0.99953300  1
  Al  Al9  1  0.50000100  0.50000000  0.49953200  1
  Al  Al10  1  0.89359100  0.22240400  0.38866000  1
  Al  Al11  1  0.39358800  0.22240400  0.88866000  1
  Al  Al12  1  0.61107800  0.77548300  0.11207700  1
  Al  Al13  1  0.11107600  0.77548200  0.61207700  1
  Al  Al14  1  0.10641200  0.77759400  0.38866100  1
  Al  Al15  1  0.60641200  0.77759800  0.88866100  1
  Al  Al16  1  0.38892500  0.22451500  0.11207700  1
  Al  Al17  1  0.88892500  0.22451800  0.61207700  1
  Al  Al18  1  0.17200100  0.64986300  0.17591800  1
  Al  Al19  1  0.67200200  0.64986500  0.67591700  1
  Al  Al20  1  0.32393900  0.35079700  0.32424200  1
  Al  Al21  1  0.82394700  0.35080200  0.82424300  1
  Al  Al22  1  0.82800100  0.35013500  0.17591800  1
  Al  Al23  1  0.32799800  0.35013400  0.67591600  1
  Al  Al24  1  0.67606300  0.64920100  0.32424200  1
  Al  Al25  1  0.17605700  0.64920500  0.82424200  1
loop_
 _atom_site_moment_label
 _atom_site_moment_crystalaxis_x
 _atom_site_moment_crystalaxis_y
 _atom_site_moment_crystalaxis_z
  Ca0  0.00112838  -0.00000016  0.00277972
  Ca1  -0.00112838  0.00000016  -0.00277972
  Mn2  -1.52406908  0.00021150  -3.75447796
  Mn3  -1.54738899  0.00021474  -3.81192554
  Mn4  -1.54738899  0.00021474  -3.81192554
  Mn5  1.52406908  -0.00021150  3.75447796
  Mn6  1.54738899  -0.00021474  3.81192554
  Mn7  1.54738899  -0.00021474  3.81192554
  Al8  -0.01090770  0.00000151  -0.02687065
  Al9  0.01090770  -0.00000151  0.02687065
  Al10  -0.00376128  0.00000052  -0.00926574
  Al11  0.00376128  -0.00000052  0.00926574
  Al12  -0.01805413  0.00000251  -0.04447555
  Al13  0.01805413  -0.00000251  0.04447555
  Al14  -0.00376128  0.00000052  -0.00926574
  Al15  0.00376128  -0.00000052  0.00926574
  Al16  -0.01805413  0.00000251  -0.04447555
  Al17  0.01805413  -0.00000251  0.04447555
  Al18  -0.01391672  0.00000193  -0.03428324
  Al19  0.01391672  -0.00000193  0.03428324
  Al20  -0.00526579  0.00000073  -0.01297204
  Al21  0.00526579  -0.00000073  0.01297204
  Al22  -0.01391672  0.00000193  -0.03428324
  Al23  0.01391672  -0.00000193  0.03428324
  Al24  -0.00526579  0.00000073  -0.01297204
  Al25  0.00526579  -0.00000073  0.01297204
