# generated using pymatgen
data_LiVS3
_symmetry_space_group_name_H-M   'P 1'
_cell_length_a   6.31025547
_cell_length_b   7.42903715
_cell_length_c   12.23513447
_cell_angle_alpha   94.61099034
_cell_angle_beta   73.82321518
_cell_angle_gamma   120.53128073
_symmetry_Int_Tables_number   1
_chemical_formula_structural   LiVS3
_chemical_formula_sum   'Li4 V4 S12'
_cell_volume   473.18889718
_cell_formula_units_Z   4
loop_
 _symmetry_equiv_pos_site_id
 _symmetry_equiv_pos_as_xyz
  1  'x, y, z'
loop_
 _atom_site_type_symbol
 _atom_site_label
 _atom_site_symmetry_multiplicity
 _atom_site_fract_x
 _atom_site_fract_y
 _atom_site_fract_z
 _atom_site_occupancy
  Li  Li0  1  0.06839300  0.32939200  0.41690200  1
  Li  Li1  1  0.56771900  0.82879900  0.91700800  1
  Li  Li2  1  0.42926600  0.18123000  0.08717800  1
  Li  Li3  1  0.92983900  0.68210600  0.58800000  1
  V  V4  1  0.00548800  0.28252100  0.78930300  1
  V  V5  1  0.49250400  0.21512500  0.70988800  1
  V  V6  1  0.50587500  0.78285600  0.28918900  1
  V  V7  1  0.99272100  0.71464200  0.20991400  1
  S  S8  1  0.65102600  0.00394400  0.43121900  1
  S  S9  1  0.15070100  0.50292800  0.93133900  1
  S  S10  1  0.86127600  0.48448000  0.07042500  1
  S  S11  1  0.36161300  0.98579100  0.57014500  1
  S  S12  1  0.43265500  0.85699700  0.12517300  1
  S  S13  1  0.93363400  0.35871500  0.62545600  1
  S  S14  1  0.06818500  0.65300800  0.37647800  1
  S  S15  1  0.56661000  0.15162700  0.87612000  1
  S  S16  1  0.96990100  0.00203500  0.19737900  1
  S  S17  1  0.46934600  0.50169000  0.69706500  1
  S  S18  1  0.52180400  0.49106000  0.29587300  1
  S  S19  1  0.02143800  0.99105700  0.79593700  1
loop_
 _atom_site_moment_label
 _atom_site_moment_crystalaxis_x
 _atom_site_moment_crystalaxis_y
 _atom_site_moment_crystalaxis_z
  Li0  0.00053868  0.00053555  -0.00096000
  Li1  -0.00053868  -0.00053555  0.00096000
  Li2  0.00053868  0.00053555  -0.00096000
  Li3  -0.00053868  -0.00053555  0.00096000
  V4  0.70566613  0.70157437  -1.25760446
  V5  0.70297274  0.69889661  -1.25280444
  V6  -0.70674348  -0.70264548  1.25952447
  V7  -0.70458877  -0.70050326  1.25568445
  S8  0.03555264  0.03534649  -0.06336022
  S9  -0.03555264  -0.03534649  0.06336022
  S10  0.03555264  0.03534649  -0.06336022
  S11  -0.03501397  -0.03481094  0.06240022
  S12  0.03716867  0.03695315  -0.06624023
  S13  -0.03716867  -0.03695315  0.06624023
  S14  0.03824603  0.03802426  -0.06816024
  S15  -0.03770735  -0.03748871  0.06720024
  S16  0.05494500  0.05462640  -0.09792035
  S17  -0.05440632  -0.05409085  0.09696034
  S18  0.05386764  0.05355530  -0.09600034
  S19  -0.05332897  -0.05301974  0.09504034
