# generated using pymatgen
data_BaAl9Fe2
_symmetry_space_group_name_H-M   'P 1'
_cell_length_a   3.90316700
_cell_length_b   8.15958777
_cell_length_c   8.16087525
_cell_angle_alpha   60.02266846
_cell_angle_beta   90.00261286
_cell_angle_gamma   90.00203323
_symmetry_Int_Tables_number   1
_chemical_formula_structural   BaAl9Fe2
_chemical_formula_sum   'Ba1 Al9 Fe2'
_cell_volume   225.13959443
_cell_formula_units_Z   1
loop_
 _symmetry_equiv_pos_site_id
 _symmetry_equiv_pos_as_xyz
  1  'x, y, z'
loop_
 _atom_site_type_symbol
 _atom_site_label
 _atom_site_symmetry_multiplicity
 _atom_site_fract_x
 _atom_site_fract_y
 _atom_site_fract_z
 _atom_site_occupancy
  Ba  Ba0  1  0.99996800  0.99975500  0.00017600  1
  Al  Al1  1  0.99998900  0.00042300  0.49838400  1
  Al  Al2  1  0.99998900  0.49851300  0.00060300  1
  Al  Al3  1  0.99998300  0.50091300  0.50039700  1
  Al  Al4  1  0.50000500  0.57551400  0.21321000  1
  Al  Al5  1  0.49997800  0.78934700  0.42311300  1
  Al  Al6  1  0.50004300  0.78754300  0.78776900  1
  Al  Al7  1  0.49999800  0.21088800  0.21144200  1
  Al  Al8  1  0.50001400  0.21295400  0.57546300  1
  Al  Al9  1  0.50000600  0.42368800  0.78914900  1
  Fe  Fe10  1  0.99993100  0.33348500  0.33340800  1
  Fe  Fe11  1  0.00009400  0.66697800  0.66688600  1
loop_
 _atom_site_moment_label
 _atom_site_moment_crystalaxis_x
 _atom_site_moment_crystalaxis_y
 _atom_site_moment_crystalaxis_z
  Al1  -0.00000002  -0.00000028  -0.00099986
  Al2  -0.00000007  -0.00000085  -0.00299958
  Al3  0.00000009  0.00000113  0.00399943
  Al4  0.00000009  0.00000113  0.00399943
  Al5  -0.00000016  -0.00000198  -0.00699901
  Al6  -0.00000005  -0.00000057  -0.00199972
  Al7  0.00000018  0.00000226  0.00799887
  Al8  0.00000007  0.00000085  0.00299958
  Al9  -0.00000014  -0.00000170  -0.00599915
  Fe10  -0.00004956  -0.00062155  -2.19768938
  Fe11  0.00004947  0.00062042  2.19368994
