# generated using pymatgen
data_Mg2CuAs2
_symmetry_space_group_name_H-M   'P 1'
_cell_length_a   10.81462051
_cell_length_b   30.31246998
_cell_length_c   21.85151855
_cell_angle_alpha   68.73610618
_cell_angle_beta   90.00199909
_cell_angle_gamma   90.00001381
_symmetry_Int_Tables_number   1
_chemical_formula_structural   Mg2CuAs2
_chemical_formula_sum   'Mg8 Cu4 As8'
_cell_volume   6675.63900947
_cell_formula_units_Z   4
loop_
 _symmetry_equiv_pos_site_id
 _symmetry_equiv_pos_as_xyz
  1  'x, y, z'
loop_
 _atom_site_type_symbol
 _atom_site_label
 _atom_site_symmetry_multiplicity
 _atom_site_fract_x
 _atom_site_fract_y
 _atom_site_fract_z
 _atom_site_occupancy
  Mg  Mg0  1  0.49999300  0.24548300  0.87729500  1
  Mg  Mg1  1  0.49995000  0.24544900  0.37699100  1
  Mg  Mg2  1  0.99998000  0.24611300  0.12678200  1
  Mg  Mg3  1  0.00003300  0.24601000  0.62717400  1
  Mg  Mg4  1  0.49998500  0.75462100  0.62261700  1
  Mg  Mg5  1  0.49999500  0.75447900  0.12293100  1
  Mg  Mg6  1  0.00001000  0.75399800  0.87317900  1
  Mg  Mg7  1  0.99997100  0.75388500  0.37300500  1
  Cu  Cu8  1  0.50000000  0.99999000  0.49997500  1
  Cu  Cu9  1  0.00005400  0.99990000  0.75006400  1
  Cu  Cu10  1  0.50001800  0.99991400  0.00015300  1
  Cu  Cu11  1  0.00003400  0.00013200  0.24983900  1
  As  As12  1  0.49999700  0.66044300  0.67026700  1
  As  As13  1  0.49999600  0.66030100  0.17032800  1
  As  As14  1  0.00000000  0.65973000  0.92026600  1
  As  As15  1  0.99999500  0.65958100  0.42036100  1
  As  As16  1  0.49999200  0.33967000  0.82968100  1
  As  As17  1  0.49999700  0.33960500  0.32972900  1
  As  As18  1  0.00000100  0.34042100  0.07966600  1
  As  As19  1  0.00000000  0.34027600  0.57969100  1
loop_
 _atom_site_moment_label
 _atom_site_moment_crystalaxis_x
 _atom_site_moment_crystalaxis_y
 _atom_site_moment_crystalaxis_z
  Mg0  -0.00000056  0.09442864  -0.03413420
  Mg1  -0.00000055  0.09335558  -0.03374631
  Mg2  -0.00000056  0.09442864  -0.03413420
  Mg3  -0.00000055  0.09335558  -0.03374631
  Mg4  -0.00000055  0.09335558  -0.03374631
  Mg5  -0.00000056  0.09442864  -0.03413420
  Mg6  -0.00000055  0.09335558  -0.03374631
  Mg7  -0.00000056  0.09442864  -0.03413420
  Cu8  0.00000116  -0.19636864  0.07098362
  Cu9  0.00000117  -0.19744169  0.07137151
  Cu10  -0.00000118  0.19958780  -0.07214729
  Cu11  -0.00000118  0.19958780  -0.07214729
  As12  -0.00000594  1.00545035  -0.36345165
  As13  -0.00000594  1.00545035  -0.36345165
  As14  -0.00000594  1.00545035  -0.36345165
  As15  -0.00000595  1.00652341  -0.36383954
  As16  -0.00000594  1.00545035  -0.36345165
  As17  -0.00000593  1.00437730  -0.36306376
  As18  -0.00000595  1.00652341  -0.36383954
  As19  -0.00000594  1.00545035  -0.36345165
