# generated using pymatgen
data_MgVS3
_symmetry_space_group_name_H-M   'P 1'
_cell_length_a   6.11998338
_cell_length_b   6.72048935
_cell_length_c   10.82239644
_cell_angle_alpha   89.99944256
_cell_angle_beta   90.32257642
_cell_angle_gamma   90.00694859
_symmetry_Int_Tables_number   1
_chemical_formula_structural   MgVS3
_chemical_formula_sum   'Mg4 V4 S12'
_cell_volume   445.11034995
_cell_formula_units_Z   4
loop_
 _symmetry_equiv_pos_site_id
 _symmetry_equiv_pos_as_xyz
  1  'x, y, z'
loop_
 _atom_site_type_symbol
 _atom_site_label
 _atom_site_symmetry_multiplicity
 _atom_site_fract_x
 _atom_site_fract_y
 _atom_site_fract_z
 _atom_site_occupancy
  Mg  Mg0  1  0.39777300  0.00001400  0.42904000  1
  Mg  Mg1  1  0.89777800  0.50001300  0.92905700  1
  Mg  Mg2  1  0.39830200  0.50001500  0.07016600  1
  Mg  Mg3  1  0.89829100  0.00001600  0.57017800  1
  V  V4  1  0.50207800  0.99999700  0.93485100  1
  V  V5  1  0.00604000  0.00000100  0.05941500  1
  V  V6  1  0.00210300  0.49999700  0.43482900  1
  V  V7  1  0.50605000  0.49999700  0.55955200  1
  S  S8  1  0.15609300  0.50000100  0.25811900  1
  S  S9  1  0.65604400  0.00000200  0.75818700  1
  S  S10  1  0.17682000  0.00001000  0.23180900  1
  S  S11  1  0.67684500  0.50001200  0.73185000  1
  S  S12  1  0.70308400  0.23697000  0.05765900  1
  S  S13  1  0.20307300  0.73696600  0.55766300  1
  S  S14  1  0.70308800  0.76300900  0.05765400  1
  S  S15  1  0.20307800  0.26301500  0.55765800  1
  S  S16  1  0.70211200  0.26179400  0.43669300  1
  S  S17  1  0.20211100  0.76179100  0.93668000  1
  S  S18  1  0.70211200  0.73819000  0.43668600  1
  S  S19  1  0.20210800  0.23819200  0.93667400  1
loop_
 _atom_site_moment_label
 _atom_site_moment_crystalaxis_x
 _atom_site_moment_crystalaxis_y
 _atom_site_moment_crystalaxis_z
  Mg0  -0.00327653  0.00121735  -0.00196314
  Mg1  0.00327653  -0.00121735  0.00196314
  Mg2  0.00409566  -0.00152168  0.00245393
  Mg3  -0.00409566  0.00152168  -0.00245393
  V4  1.20002937  -0.44585303  0.71900029
  V5  1.19921023  -0.44554869  0.71850950
  V6  -1.20166763  0.44646170  -0.71998186
  V7  -1.19921023  0.44554869  -0.71850950
  S8  0.16710307  -0.06208465  0.10012018
  S9  -0.16710307  0.06208465  -0.10012018
  S10  -0.16464567  0.06117164  -0.09864782
  S11  0.16382653  -0.06086731  0.09815704
  S12  -0.05160536  0.01917320  -0.03091947
  S13  0.05160536  -0.01917320  0.03091947
  S14  -0.05160536  0.01917320  -0.03091947
  S15  0.05160536  -0.01917320  0.03091947
  S16  0.05160536  -0.01917320  0.03091947
  S17  -0.05160536  0.01917320  -0.03091947
  S18  0.05160536  -0.01917320  0.03091947
  S19  -0.05160536  0.01917320  -0.03091947
