# generated using pymatgen
data_Ca(FeAs)2
_symmetry_space_group_name_H-M   'P 1'
_cell_length_a   4.04765079
_cell_length_b   7.27588480
_cell_length_c   7.96554915
_cell_angle_alpha   110.81410171
_cell_angle_beta   89.80953059
_cell_angle_gamma   74.17197598
_symmetry_Int_Tables_number   1
_chemical_formula_structural   Ca(FeAs)2
_chemical_formula_sum   'Ca2 Fe4 As4'
_cell_volume   209.64906006
_cell_formula_units_Z   2
loop_
 _symmetry_equiv_pos_site_id
 _symmetry_equiv_pos_as_xyz
  1  'x, y, z'
loop_
 _atom_site_type_symbol
 _atom_site_label
 _atom_site_symmetry_multiplicity
 _atom_site_fract_x
 _atom_site_fract_y
 _atom_site_fract_z
 _atom_site_occupancy
  Ca  Ca0  1  0.98480500  0.00021100  0.49999500  1
  Ca  Ca1  1  0.01542200  0.99986500  0.99998900  1
  Fe  Fe2  1  0.26195000  0.50015600  0.61976900  1
  Fe  Fe3  1  0.76153600  0.49995900  0.38038600  1
  Fe  Fe4  1  0.23740200  0.50167200  0.12079700  1
  Fe  Fe5  1  0.73863800  0.49818000  0.87907400  1
  As  As6  1  0.64046600  0.74711100  0.71340400  1
  As  As7  1  0.61523100  0.74858800  0.21386900  1
  As  As8  1  0.38405700  0.25292400  0.28652600  1
  As  As9  1  0.36049500  0.25133300  0.78619100  1
loop_
 _atom_site_moment_label
 _atom_site_moment_crystalaxis_x
 _atom_site_moment_crystalaxis_y
 _atom_site_moment_crystalaxis_z
  Ca0  -0.00876981  0.01538485  0.00939504
  Ca1  0.00876981  -0.01538485  -0.00939504
  Fe2  2.00010082  -3.50877056  -2.14269473
  Fe3  2.00010082  -3.50877056  -2.14269473
  Fe4  -2.00127012  3.51082188  2.14394740
  Fe5  -2.00127012  3.51082188  2.14394740
  As6  0.01227773  -0.02153878  -0.01315305
  As7  -0.01169308  0.02051313  0.01252672
  As8  0.01227773  -0.02153878  -0.01315305
  As9  -0.01169308  0.02051313  0.01252672
