# generated using pymatgen
data_Rb2Mn3S4
_symmetry_space_group_name_H-M   'P 1'
_cell_length_a   6.05623692
_cell_length_b   9.53934715
_cell_length_c   9.53935143
_cell_angle_alpha   73.47435434
_cell_angle_beta   108.50731650
_cell_angle_gamma   108.50725843
_symmetry_Int_Tables_number   1
_chemical_formula_structural   Rb2Mn3S4
_chemical_formula_sum   'Rb4 Mn6 S8'
_cell_volume   485.13386553
_cell_formula_units_Z   2
loop_
 _symmetry_equiv_pos_site_id
 _symmetry_equiv_pos_as_xyz
  1  'x, y, z'
loop_
 _atom_site_type_symbol
 _atom_site_label
 _atom_site_symmetry_multiplicity
 _atom_site_fract_x
 _atom_site_fract_y
 _atom_site_fract_z
 _atom_site_occupancy
  Rb  Rb0  1  0.26222000  0.62138600  0.37861700  1
  Rb  Rb1  1  0.73778800  0.37862100  0.62138800  1
  Rb  Rb2  1  0.23778200  0.12138600  0.87861300  1
  Rb  Rb3  1  0.76221300  0.87861100  0.12138100  1
  Mn  Mn4  1  0.75000000  0.24999800  0.25000200  1
  Mn  Mn5  1  0.24999900  0.02239100  0.47760800  1
  Mn  Mn6  1  0.25000000  0.47759700  0.02240300  1
  Mn  Mn7  1  0.25000000  0.75000100  0.74999900  1
  Mn  Mn8  1  0.75000000  0.97761700  0.52238200  1
  Mn  Mn9  1  0.75000000  0.52239200  0.97760800  1
  S  S10  1  0.42973000  0.01365300  0.28289500  1
  S  S11  1  0.86672600  0.28290000  0.01363800  1
  S  S12  1  0.07027000  0.21710400  0.48634700  1
  S  S13  1  0.63327300  0.48636100  0.21710100  1
  S  S14  1  0.57027000  0.98634700  0.71709700  1
  S  S15  1  0.13326500  0.71709300  0.98636100  1
  S  S16  1  0.92972800  0.78290200  0.51365400  1
  S  S17  1  0.36673600  0.51364000  0.78290700  1
loop_
 _atom_site_moment_label
 _atom_site_moment_crystalaxis_x
 _atom_site_moment_crystalaxis_y
 _atom_site_moment_crystalaxis_z
  Mn4  -2.89200113  0.05054524  -4.54850481
  Mn5  -2.87291622  0.05021168  -4.51848828
  Mn6  -2.87291622  0.05021168  -4.51848828
  Mn7  2.89200113  -0.05054524  4.54850481
  Mn8  2.87291622  -0.05021168  4.51848828
  Mn9  2.87291622  -0.05021168  4.51848828
  S10  0.00381698  -0.00006671  0.00600331
  S11  0.00381698  -0.00006671  0.00600331
  S12  0.00381698  -0.00006671  0.00600331
  S13  0.00381698  -0.00006671  0.00600331
  S14  -0.00381698  0.00006671  -0.00600331
  S15  -0.00381698  0.00006671  -0.00600331
  S16  -0.00381698  0.00006671  -0.00600331
  S17  -0.00381698  0.00006671  -0.00600331
