# generated using pymatgen
data_Be4AlCr
_symmetry_space_group_name_H-M   'P 1'
_cell_length_a   4.42144758
_cell_length_b   4.42144940
_cell_length_c   4.42143700
_cell_angle_alpha   60.00032436
_cell_angle_beta   60.00019632
_cell_angle_gamma   59.99991257
_symmetry_Int_Tables_number   1
_chemical_formula_structural   Be4AlCr
_chemical_formula_sum   'Be4 Al1 Cr1'
_cell_volume   61.11938919
_cell_formula_units_Z   1
loop_
 _symmetry_equiv_pos_site_id
 _symmetry_equiv_pos_as_xyz
  1  'x, y, z'
loop_
 _atom_site_type_symbol
 _atom_site_label
 _atom_site_symmetry_multiplicity
 _atom_site_fract_x
 _atom_site_fract_y
 _atom_site_fract_z
 _atom_site_occupancy
  Be  Be0  1  0.62662000  0.62661900  0.62662000  1
  Be  Be1  1  0.62661700  0.62661600  0.12014600  1
  Be  Be2  1  0.12014700  0.62661400  0.62661800  1
  Be  Be3  1  0.62661600  0.12014500  0.62661700  1
  Al  Al4  1  0.25000000  0.24999900  0.24999900  1
  Cr  Cr5  1  0.99999900  0.00000600  0.99999800  1
loop_
 _atom_site_moment_label
 _atom_site_moment_crystalaxis_x
 _atom_site_moment_crystalaxis_y
 _atom_site_moment_crystalaxis_z
  Be0  -0.00000002  -0.00000009  -0.04199994
  Be1  -0.00000002  -0.00000009  -0.04199994
  Be2  -0.00000002  -0.00000009  -0.04199994
  Be3  -0.00000002  -0.00000009  -0.04199994
  Al4  -0.00000001  -0.00000004  -0.01999997
  Cr5  0.00000190  0.00000743  3.35299533
