# generated using pymatgen
data_Mg5MnSb4
_symmetry_space_group_name_H-M   'P 1'
_cell_length_a   7.88728209
_cell_length_b   15.18952485
_cell_length_c   9.27266628
_cell_angle_alpha   71.92796412
_cell_angle_beta   90.08120322
_cell_angle_gamma   90.96960996
_symmetry_Int_Tables_number   1
_chemical_formula_structural   Mg5MnSb4
_chemical_formula_sum   'Mg20 Mn4 Sb16'
_cell_volume   1055.93942346
_cell_formula_units_Z   4
loop_
 _symmetry_equiv_pos_site_id
 _symmetry_equiv_pos_as_xyz
  1  'x, y, z'
loop_
 _atom_site_type_symbol
 _atom_site_label
 _atom_site_symmetry_multiplicity
 _atom_site_fract_x
 _atom_site_fract_y
 _atom_site_fract_z
 _atom_site_occupancy
  Mg  Mg0  1  0.16679800  0.00032900  0.74983300  1
  Mg  Mg1  1  0.16679500  0.00032900  0.24983400  1
  Mg  Mg2  1  0.66677100  0.00031500  0.49995200  1
  Mg  Mg3  1  0.66677400  0.00031400  0.99995400  1
  Mg  Mg4  1  0.16692400  0.49923600  0.50046900  1
  Mg  Mg5  1  0.16693700  0.49923300  0.00047100  1
  Mg  Mg6  1  0.66695400  0.49922600  0.25015500  1
  Mg  Mg7  1  0.66694400  0.49922700  0.75015200  1
  Mg  Mg8  1  0.49887300  0.81605800  0.34230700  1
  Mg  Mg9  1  0.49887100  0.81605800  0.84230600  1
  Mg  Mg10  1  0.99885000  0.81598300  0.09225500  1
  Mg  Mg11  1  0.99885000  0.81598300  0.59225400  1
  Mg  Mg12  1  0.33473200  0.18496400  0.40728800  1
  Mg  Mg13  1  0.33472600  0.18496400  0.90728900  1
  Mg  Mg14  1  0.83468300  0.18499300  0.15723600  1
  Mg  Mg15  1  0.83468400  0.18499400  0.65723500  1
  Mg  Mg16  1  0.33453200  0.68380800  0.15775800  1
  Mg  Mg17  1  0.33453200  0.68380800  0.65775900  1
  Mg  Mg18  1  0.83464600  0.68381200  0.90776400  1
  Mg  Mg19  1  0.83464600  0.68381300  0.40776200  1
  Mn  Mn20  1  0.49795300  0.31576800  0.09216400  1
  Mn  Mn21  1  0.99804600  0.31567600  0.34260000  1
  Mn  Mn22  1  0.49794800  0.31577700  0.59216200  1
  Mn  Mn23  1  0.99804200  0.31568600  0.84260000  1
  Sb  Sb24  1  0.49482600  0.11302100  0.69402100  1
  Sb  Sb25  1  0.49482400  0.11301800  0.19401900  1
  Sb  Sb26  1  0.99494200  0.11302900  0.44393800  1
  Sb  Sb27  1  0.99494200  0.11303200  0.94393400  1
  Sb  Sb28  1  0.49491300  0.61205300  0.44424100  1
  Sb  Sb29  1  0.49491500  0.61205500  0.94424000  1
  Sb  Sb30  1  0.99476800  0.61202600  0.19431000  1
  Sb  Sb31  1  0.99476400  0.61202300  0.69431200  1
  Sb  Sb32  1  0.33853300  0.38710300  0.30601700  1
  Sb  Sb33  1  0.33853200  0.38710000  0.80602900  1
  Sb  Sb34  1  0.83847600  0.38708600  0.05621400  1
  Sb  Sb35  1  0.83848000  0.38708600  0.55620800  1
  Sb  Sb36  1  0.33845200  0.88776400  0.05578000  1
  Sb  Sb37  1  0.33845100  0.88776400  0.55577900  1
  Sb  Sb38  1  0.83866800  0.88774000  0.80570200  1
  Sb  Sb39  1  0.83866700  0.88774000  0.30570300  1
loop_
 _atom_site_moment_label
 _atom_site_moment_crystalaxis_x
 _atom_site_moment_crystalaxis_y
 _atom_site_moment_crystalaxis_z
  Mg0  0.00000866  0.00105201  -0.00032375
  Mg1  -0.00000866  -0.00105201  0.00032375
  Mg2  -0.00000866  -0.00105201  0.00032375
  Mg3  0.00000866  0.00105201  -0.00032375
  Mg4  -0.00000866  -0.00105201  0.00032375
  Mg5  0.00000866  0.00105201  -0.00032375
  Mg6  0.00000866  0.00105201  -0.00032375
  Mg7  -0.00000866  -0.00105201  0.00032375
  Mg12  0.00001732  0.00210402  -0.00064750
  Mg13  -0.00001732  -0.00210402  0.00064750
  Mg14  0.00000866  0.00105201  -0.00032375
  Mg15  -0.00000866  -0.00105201  0.00032375
  Mn20  -0.03933531  -4.77716730  1.47014211
  Mn21  -0.03932665  -4.77611529  1.46981836
  Mn22  0.03933531  4.77716730  -1.47014211
  Mn23  0.03932665  4.77611529  -1.46981836
  Sb24  -0.00005197  -0.00631205  0.00194249
  Sb25  0.00005197  0.00631205  -0.00194249
  Sb26  0.00006064  0.00736405  -0.00226624
  Sb27  -0.00006064  -0.00736405  0.00226624
  Sb28  -0.00001732  -0.00210402  0.00064750
  Sb29  0.00001732  0.00210402  -0.00064750
  Sb30  0.00000866  0.00105201  -0.00032375
  Sb31  -0.00000866  -0.00105201  0.00032375
  Sb32  0.00004331  0.00526004  -0.00161874
  Sb33  -0.00004331  -0.00526004  0.00161874
  Sb34  0.00002599  0.00315602  -0.00097125
  Sb35  -0.00002599  -0.00315602  0.00097125
  Sb36  0.00002599  0.00315602  -0.00097125
  Sb37  -0.00002599  -0.00315602  0.00097125
