# generated using pymatgen
data_Na2NiSn
_symmetry_space_group_name_H-M   'P 1'
_cell_length_a   5.10552900
_cell_length_b   5.97215377
_cell_length_c   5.97237381
_cell_angle_alpha   78.10689913
_cell_angle_beta   90.00004889
_cell_angle_gamma   90.00027715
_symmetry_Int_Tables_number   1
_chemical_formula_structural   Na2NiSn
_chemical_formula_sum   'Na4 Ni2 Sn2'
_cell_volume   178.19460269
_cell_formula_units_Z   2
loop_
 _symmetry_equiv_pos_site_id
 _symmetry_equiv_pos_as_xyz
  1  'x, y, z'
loop_
 _atom_site_type_symbol
 _atom_site_label
 _atom_site_symmetry_multiplicity
 _atom_site_fract_x
 _atom_site_fract_y
 _atom_site_fract_z
 _atom_site_occupancy
  Na  Na0  1  0.00000000  0.00000700  0.00000700  1
  Na  Na1  1  0.00000000  0.49999300  0.49999300  1
  Na  Na2  1  0.00000100  0.50000900  0.99999200  1
  Na  Na3  1  0.99999900  0.99999200  0.50000800  1
  Ni  Ni4  1  0.50000000  0.75000000  0.75000000  1
  Ni  Ni5  1  0.50000000  0.24999900  0.25000000  1
  Sn  Sn6  1  0.50000000  0.25000000  0.75000000  1
  Sn  Sn7  1  0.50000000  0.75000000  0.25000000  1
loop_
 _atom_site_moment_label
 _atom_site_moment_crystalaxis_x
 _atom_site_moment_crystalaxis_y
 _atom_site_moment_crystalaxis_z
  Ni4  -0.97700000  -0.00000257  -0.00000014
  Ni5  0.97700000  0.00000257  0.00000014
