# generated using pymatgen
data_Li5FeS4
_symmetry_space_group_name_H-M   'P 1'
_cell_length_a   7.66286399
_cell_length_b   9.30324632
_cell_length_c   10.10407215
_cell_angle_alpha   78.61859657
_cell_angle_beta   83.09441941
_cell_angle_gamma   72.37820139
_symmetry_Int_Tables_number   1
_chemical_formula_structural   Li5FeS4
_chemical_formula_sum   'Li20 Fe4 S16'
_cell_volume   671.60185977
_cell_formula_units_Z   4
loop_
 _symmetry_equiv_pos_site_id
 _symmetry_equiv_pos_as_xyz
  1  'x, y, z'
loop_
 _atom_site_type_symbol
 _atom_site_label
 _atom_site_symmetry_multiplicity
 _atom_site_fract_x
 _atom_site_fract_y
 _atom_site_fract_z
 _atom_site_occupancy
  Li  Li0  1  0.12496500  0.87505000  0.37504000  1
  Li  Li1  1  0.37503800  0.62494800  0.12496300  1
  Li  Li2  1  0.87503700  0.12495000  0.62496100  1
  Li  Li3  1  0.62496400  0.37504900  0.87503800  1
  Li  Li4  1  0.36341700  0.99083300  0.59773500  1
  Li  Li5  1  0.61339400  0.74085000  0.34772900  1
  Li  Li6  1  0.11339600  0.24085400  0.84772600  1
  Li  Li7  1  0.86341600  0.49083500  0.09772900  1
  Li  Li8  1  0.07926400  0.27486000  0.31372000  1
  Li  Li9  1  0.32932800  0.02485200  0.06375000  1
  Li  Li10  1  0.82931700  0.52485700  0.56375000  1
  Li  Li11  1  0.57927100  0.77485900  0.81372100  1
  Li  Li12  1  0.92073300  0.72514100  0.68628100  1
  Li  Li13  1  0.17068700  0.47514200  0.43625500  1
  Li  Li14  1  0.67067500  0.97514600  0.93624900  1
  Li  Li15  1  0.42073300  0.22514200  0.18628000  1
  Li  Li16  1  0.63658300  0.00916700  0.40226300  1
  Li  Li17  1  0.88660400  0.75914600  0.15227400  1
  Li  Li18  1  0.38660800  0.25914600  0.65227400  1
  Li  Li19  1  0.13658400  0.50916500  0.90226700  1
  Fe  Fe20  1  0.37480300  0.62523200  0.62515000  1
  Fe  Fe21  1  0.62519900  0.37476300  0.37485100  1
  Fe  Fe22  1  0.12519600  0.87477200  0.87485200  1
  Fe  Fe23  1  0.87480700  0.12522900  0.12514700  1
  S  S24  1  0.87451200  0.12544400  0.37447600  1
  S  S25  1  0.12465000  0.87523000  0.12477600  1
  S  S26  1  0.62464900  0.37523500  0.62476700  1
  S  S27  1  0.37452700  0.62543200  0.87446700  1
  S  S28  1  0.12548000  0.87456500  0.62551800  1
  S  S29  1  0.37534900  0.62476700  0.37523400  1
  S  S30  1  0.87534500  0.12477300  0.87522600  1
  S  S31  1  0.62547100  0.37457200  0.12553000  1
  S  S32  1  0.62658500  0.77601100  0.57471000  1
  S  S33  1  0.87669300  0.52598800  0.32463800  1
  S  S34  1  0.37670300  0.02599300  0.82464500  1
  S  S35  1  0.12659900  0.27600800  0.07471100  1
  S  S36  1  0.37341900  0.22399200  0.42529000  1
  S  S37  1  0.62330200  0.97400400  0.17535700  1
  S  S38  1  0.12330200  0.47400900  0.67536500  1
  S  S39  1  0.87340100  0.72398600  0.92529000  1
loop_
 _atom_site_moment_label
 _atom_site_moment_crystalaxis_x
 _atom_site_moment_crystalaxis_y
 _atom_site_moment_crystalaxis_z
  Li4  -0.00075016  -0.00030695  -0.00032499
  Li7  0.00075016  0.00030695  0.00032499
  Li8  -0.00075016  -0.00030695  -0.00032499
  Li9  0.00075016  0.00030695  0.00032499
  Li10  -0.00075016  -0.00030695  -0.00032499
  Li11  0.00075016  0.00030695  0.00032499
  Li12  -0.00075016  -0.00030695  -0.00032499
  Li13  -0.00075016  -0.00030695  -0.00032499
  Li14  0.00075016  0.00030695  0.00032499
  Li15  0.00075016  0.00030695  0.00032499
  Li16  -0.00075016  -0.00030695  -0.00032499
  Li19  0.00075016  0.00030695  0.00032499
  Fe20  -2.98489913  -1.22136316  -1.29315020
  Fe21  -2.98489913  -1.22136316  -1.29315020
  Fe22  2.98489913  1.22136316  1.29315020
  Fe23  2.98489913  1.22136316  1.29315020
  S24  -0.00150033  -0.00061390  -0.00064999
  S25  0.11177431  0.04573589  0.04842407
  S26  -0.11177431  -0.04573589  -0.04842407
  S27  0.00150033  0.00061390  0.00064999
  S28  -0.00150033  -0.00061390  -0.00064999
  S29  -0.11177431  -0.04573589  -0.04842407
  S30  0.11177431  0.04573589  0.04842407
  S31  0.00150033  0.00061390  0.00064999
  S32  -0.05701240  -0.02332837  -0.02469953
  S33  -0.05701240  -0.02332837  -0.02469953
  S34  0.05701240  0.02332837  0.02469953
  S35  0.05701240  0.02332837  0.02469953
  S36  -0.05701240  -0.02332837  -0.02469953
  S37  0.05701240  0.02332837  0.02469953
  S38  -0.05701240  -0.02332837  -0.02469953
  S39  0.05701240  0.02332837  0.02469953
