# generated using pymatgen
data_BaCoSe2
_symmetry_space_group_name_H-M   'P 1'
_cell_length_a   5.74240949
_cell_length_b   13.57275895
_cell_length_c   5.74717603
_cell_angle_alpha   77.77766011
_cell_angle_beta   90.00655287
_cell_angle_gamma   102.21908715
_symmetry_Int_Tables_number   1
_chemical_formula_structural   BaCoSe2
_chemical_formula_sum   'Ba4 Co4 Se8'
_cell_volume   427.39724456
_cell_formula_units_Z   4
loop_
 _symmetry_equiv_pos_site_id
 _symmetry_equiv_pos_as_xyz
  1  'x, y, z'
loop_
 _atom_site_type_symbol
 _atom_site_label
 _atom_site_symmetry_multiplicity
 _atom_site_fract_x
 _atom_site_fract_y
 _atom_site_fract_z
 _atom_site_occupancy
  Ba  Ba0  1  0.50000200  0.99998800  0.49997400  1
  Ba  Ba1  1  0.75003400  0.50003800  0.74996800  1
  Ba  Ba2  1  0.00001300  0.99998900  0.99999400  1
  Ba  Ba3  1  0.25005100  0.50003600  0.24995900  1
  Co  Co4  1  0.37494500  0.24997500  0.12506700  1
  Co  Co5  1  0.12497400  0.75000600  0.87505800  1
  Co  Co6  1  0.62497900  0.75000100  0.37506500  1
  Co  Co7  1  0.87495400  0.24997700  0.62507300  1
  Se  Se8  1  0.07147300  0.14321700  0.42844300  1
  Se  Se9  1  0.32155200  0.64327300  0.67838600  1
  Se  Se10  1  0.57148700  0.14321200  0.92842800  1
  Se  Se11  1  0.82151500  0.64326800  0.17844300  1
  Se  Se12  1  0.67849500  0.35674400  0.32154400  1
  Se  Se13  1  0.92848700  0.85676100  0.57150000  1
  Se  Se14  1  0.17848600  0.35676100  0.82152200  1
  Se  Se15  1  0.42855200  0.85675700  0.07157600  1
loop_
 _atom_site_moment_label
 _atom_site_moment_crystalaxis_x
 _atom_site_moment_crystalaxis_y
 _atom_site_moment_crystalaxis_z
  Co4  -1.51667199  -2.10597006  0.44571359
  Co5  -1.51800416  -2.10781983  0.44610508
  Co6  1.51667199  2.10597006  -0.44571359
  Co7  1.51800416  2.10781983  -0.44610508
