# generated using pymatgen
data_LiSiNi2
_symmetry_space_group_name_H-M   'P 1'
_cell_length_a   3.95630798
_cell_length_b   3.95771301
_cell_length_c   3.92401126
_cell_angle_alpha   60.14718937
_cell_angle_beta   60.16498186
_cell_angle_gamma   59.49208358
_symmetry_Int_Tables_number   1
_chemical_formula_structural   LiSiNi2
_chemical_formula_sum   'Li1 Si1 Ni2'
_cell_volume   43.37780931
_cell_formula_units_Z   1
loop_
 _symmetry_equiv_pos_site_id
 _symmetry_equiv_pos_as_xyz
  1  'x, y, z'
loop_
 _atom_site_type_symbol
 _atom_site_label
 _atom_site_symmetry_multiplicity
 _atom_site_fract_x
 _atom_site_fract_y
 _atom_site_fract_z
 _atom_site_occupancy
  Li  Li0  1  0.50012600  0.49998400  0.49996900  1
  Si  Si1  1  0.99980400  0.00024400  0.99990700  1
  Ni  Ni2  1  0.25002200  0.25061900  0.25009800  1
  Ni  Ni3  1  0.75004800  0.74915300  0.75002600  1
loop_
 _atom_site_moment_label
 _atom_site_moment_crystalaxis_x
 _atom_site_moment_crystalaxis_y
 _atom_site_moment_crystalaxis_z
  Li0  -0.00000133  -0.00000224  0.00200177
  Si1  0.00001797  0.00003020  -0.02702395
  Ni2  0.00045394  0.00076295  -0.68260504
  Ni3  0.00045394  0.00076295  -0.68260504
