# generated using pymatgen
data_K(FeTe)2
_symmetry_space_group_name_H-M   'P 1'
_cell_length_a   4.35520162
_cell_length_b   8.18962205
_cell_length_c   8.75149345
_cell_angle_alpha   103.65703604
_cell_angle_beta   90.67953872
_cell_angle_gamma   75.03352871
_symmetry_Int_Tables_number   1
_chemical_formula_structural   K(FeTe)2
_chemical_formula_sum   'K2 Fe4 Te4'
_cell_volume   292.62732636
_cell_formula_units_Z   2
loop_
 _symmetry_equiv_pos_site_id
 _symmetry_equiv_pos_as_xyz
  1  'x, y, z'
loop_
 _atom_site_type_symbol
 _atom_site_label
 _atom_site_symmetry_multiplicity
 _atom_site_fract_x
 _atom_site_fract_y
 _atom_site_fract_z
 _atom_site_occupancy
  K  K0  1  0.99957500  0.00175300  0.49998100  1
  K  K1  1  0.99946900  0.00134500  0.00071500  1
  Fe  Fe2  1  0.75864300  0.49985600  0.39059500  1
  Fe  Fe3  1  0.23898700  0.50136300  0.60970700  1
  Fe  Fe4  1  0.76381900  0.49754700  0.88921500  1
  Fe  Fe5  1  0.23794700  0.50053400  0.10878300  1
  Te  Te6  1  0.36185400  0.27896100  0.31477200  1
  Te  Te7  1  0.36407200  0.27781500  0.81430200  1
  Te  Te8  1  0.63956800  0.72105500  0.68677500  1
  Te  Te9  1  0.63606600  0.71977000  0.18515300  1
loop_
 _atom_site_moment_label
 _atom_site_moment_crystalaxis_x
 _atom_site_moment_crystalaxis_y
 _atom_site_moment_crystalaxis_z
  K0  -0.00048563  0.00100553  0.00047447
  K1  0.00048563  -0.00100553  -0.00047447
  Fe2  1.66813352  -3.45398961  -1.62980834
  Fe3  1.48699413  -3.07892757  -1.45283061
  Fe4  -1.66133472  3.43991222  1.62316575
  Fe5  -1.49476418  3.09501602  1.46042215
  Te6  0.00874131  -0.01809951  -0.00854048
  Te7  -0.00825568  0.01709398  0.00806601
  Te8  0.00242814  -0.00502764  -0.00237236
  Te9  -0.00194251  0.00402211  0.00189788
