# generated using pymatgen
data_Cs(MnP)2
_symmetry_space_group_name_H-M   'P 1'
_cell_length_a   4.34843442
_cell_length_b   7.82606829
_cell_length_c   8.78612829
_cell_angle_alpha   107.15158354
_cell_angle_beta   90.02822165
_cell_angle_gamma   106.13882883
_symmetry_Int_Tables_number   1
_chemical_formula_structural   Cs(MnP)2
_chemical_formula_sum   'Cs2 Mn4 P4'
_cell_volume   273.33553114
_cell_formula_units_Z   2
loop_
 _symmetry_equiv_pos_site_id
 _symmetry_equiv_pos_as_xyz
  1  'x, y, z'
loop_
 _atom_site_type_symbol
 _atom_site_label
 _atom_site_symmetry_multiplicity
 _atom_site_fract_x
 _atom_site_fract_y
 _atom_site_fract_z
 _atom_site_occupancy
  Cs  Cs0  1  0.99999900  0.00000100  0.50000200  1
  Cs  Cs1  1  0.99999900  0.00000100  0.00000100  1
  Mn  Mn2  1  0.24877600  0.49756900  0.36953700  1
  Mn  Mn3  1  0.75122600  0.50243200  0.63046800  1
  Mn  Mn4  1  0.24885400  0.49772500  0.86960400  1
  Mn  Mn5  1  0.75114700  0.50227000  0.13038800  1
  P  P6  1  0.66103000  0.32212400  0.33719000  1
  P  P7  1  0.66110100  0.32225200  0.83717800  1
  P  P8  1  0.33897000  0.67787900  0.66281300  1
  P  P9  1  0.33889800  0.67774600  0.16282000  1
loop_
 _atom_site_moment_label
 _atom_site_moment_crystalaxis_x
 _atom_site_moment_crystalaxis_y
 _atom_site_moment_crystalaxis_z
  Cs0  -0.00013027  -0.00308699  -0.00162171
  Cs1  0.00013027  0.00308699  0.00162171
  Mn2  -0.18988521  -4.49980731  -2.36390629
  Mn3  -0.18988521  -4.49980731  -2.36390629
  Mn4  0.18988521  4.49980731  2.36390629
  Mn5  0.18988521  4.49980731  2.36390629
  P6  0.00607911  0.14405969  0.07567960
  P7  -0.00607911  -0.14405969  -0.07567960
  P8  0.00607911  0.14405969  0.07567960
  P9  -0.00607911  -0.14405969  -0.07567960
