# generated using pymatgen
data_Cs(V3S4)2
_symmetry_space_group_name_H-M   'P 1'
_cell_length_a   3.69250670
_cell_length_b   9.72153640
_cell_length_c   9.76749403
_cell_angle_alpha   119.70653110
_cell_angle_beta   89.83947680
_cell_angle_gamma   90.23409951
_symmetry_Int_Tables_number   1
_chemical_formula_structural   Cs(V3S4)2
_chemical_formula_sum   'Cs1 V6 S8'
_cell_volume   304.53898433
_cell_formula_units_Z   1
loop_
 _symmetry_equiv_pos_site_id
 _symmetry_equiv_pos_as_xyz
  1  'x, y, z'
loop_
 _atom_site_type_symbol
 _atom_site_label
 _atom_site_symmetry_multiplicity
 _atom_site_fract_x
 _atom_site_fract_y
 _atom_site_fract_z
 _atom_site_occupancy
  Cs  Cs0  1  0.49005200  0.99924000  0.99916700  1
  V  V1  1  0.73849300  0.48329300  0.34418700  1
  V  V2  1  0.25301700  0.13439200  0.47813000  1
  V  V3  1  0.26727100  0.52299100  0.65673500  1
  V  V4  1  0.74184100  0.65553900  0.13546000  1
  V  V5  1  0.74601200  0.86467500  0.52021200  1
  V  V6  1  0.26234500  0.34136000  0.86609200  1
  S  S7  1  0.75702300  0.33242200  0.66628500  1
  S  S8  1  0.24315200  0.66665400  0.33269400  1
  S  S9  1  0.75205900  0.96627300  0.32027800  1
  S  S10  1  0.76100100  0.68007800  0.64522700  1
  S  S11  1  0.75672300  0.35413300  0.03558900  1
  S  S12  1  0.24642100  0.05080400  0.68065000  1
  S  S13  1  0.24018600  0.32123500  0.37199900  1
  S  S14  1  0.24440400  0.62691100  0.94734800  1
loop_
 _atom_site_moment_label
 _atom_site_moment_crystalaxis_x
 _atom_site_moment_crystalaxis_y
 _atom_site_moment_crystalaxis_z
  V1  0.00343710  0.00874810  -2.57266098
  V2  0.00258483  0.00657890  -1.93473689
  V3  0.00270754  0.00689121  -2.02658199
  V4  -0.00347445  -0.00884316  2.60061383
  V5  -0.00349045  -0.00888389  2.61259363
  V6  -0.00277422  -0.00706095  2.07649780
  S7  -0.00002267  -0.00005771  0.01697138
  S8  0.00001200  0.00003055  -0.00898485
  S9  -0.00002267  -0.00005771  0.01697138
  S10  -0.00007202  -0.00018331  0.05390908
  S11  0.00006936  0.00017652  -0.05191245
  S12  0.00004802  0.00012221  -0.03593939
  S13  -0.00011337  -0.00028855  0.08485688
  S14  0.00005602  0.00014258  -0.04192928
