# generated using pymatgen
data_MgGeRu2
_symmetry_space_group_name_H-M   'P 1'
_cell_length_a   9.98701970
_cell_length_b   10.61392784
_cell_length_c   10.58809806
_cell_angle_alpha   61.94655018
_cell_angle_beta   61.85939130
_cell_angle_gamma   61.93478643
_symmetry_Int_Tables_number   1
_chemical_formula_structural   MgGeRu2
_chemical_formula_sum   'Mg1 Ge1 Ru2'
_cell_volume   827.61327424
_cell_formula_units_Z   1
loop_
 _symmetry_equiv_pos_site_id
 _symmetry_equiv_pos_as_xyz
  1  'x, y, z'
loop_
 _atom_site_type_symbol
 _atom_site_label
 _atom_site_symmetry_multiplicity
 _atom_site_fract_x
 _atom_site_fract_y
 _atom_site_fract_z
 _atom_site_occupancy
  Mg  Mg0  1  0.99995400  0.99999900  0.00000000  1
  Ge  Ge1  1  0.50008300  0.00000100  0.99999800  1
  Ru  Ru2  1  0.72826200  0.99999900  0.00000200  1
  Ru  Ru3  1  0.27170100  0.00000100  0.00000000  1
loop_
 _atom_site_moment_label
 _atom_site_moment_crystalaxis_x
 _atom_site_moment_crystalaxis_y
 _atom_site_moment_crystalaxis_z
  Mg0  0.00001366  -0.00003419  -0.00599029
  Ge1  -0.00014343  0.00035899  0.06289809
  Ru2  0.00467853  -0.01171004  -2.05167590
  Ru3  -0.00498133  0.01246791  2.18446077
