# generated using pymatgen
data_MnTe
_symmetry_space_group_name_H-M   'P 1'
_cell_length_a   4.23052157
_cell_length_b   4.23051971
_cell_length_c   6.78060200
_cell_angle_alpha   90.00006795
_cell_angle_beta   89.99999806
_cell_angle_gamma   119.91360350
_symmetry_Int_Tables_number   1
_chemical_formula_structural   MnTe
_chemical_formula_sum   'Mn2 Te2'
_cell_volume   105.18745689
_cell_formula_units_Z   2
loop_
 _symmetry_equiv_pos_site_id
 _symmetry_equiv_pos_as_xyz
  1  'x, y, z'
loop_
 _atom_site_type_symbol
 _atom_site_label
 _atom_site_symmetry_multiplicity
 _atom_site_fract_x
 _atom_site_fract_y
 _atom_site_fract_z
 _atom_site_occupancy
  Mn  Mn0  1  0.00000100  0.50000000  0.50000000  1
  Mn  Mn1  1  0.99999900  0.50000000  0.00000000  1
  Te  Te2  1  0.66653300  0.83346700  0.25000000  1
  Te  Te3  1  0.33346800  0.16653300  0.75000000  1
loop_
 _atom_site_moment_label
 _atom_site_moment_crystalaxis_x
 _atom_site_moment_crystalaxis_y
 _atom_site_moment_crystalaxis_z
  Mn0  -2.63270862  2.63270994  0.00000187
  Mn1  2.63270862  -2.63270994  -0.00000187
