# generated using pymatgen
data_Ni3Te4
_symmetry_space_group_name_H-M   'P 1'
_cell_length_a   4.08320717
_cell_length_b   6.84064598
_cell_length_c   12.00044569
_cell_angle_alpha   89.54979172
_cell_angle_beta   79.89036067
_cell_angle_gamma   107.08807834
_symmetry_Int_Tables_number   1
_chemical_formula_structural   Ni3Te4
_chemical_formula_sum   'Ni6 Te8'
_cell_volume   314.79195416
_cell_formula_units_Z   2
loop_
 _symmetry_equiv_pos_site_id
 _symmetry_equiv_pos_as_xyz
  1  'x, y, z'
loop_
 _atom_site_type_symbol
 _atom_site_label
 _atom_site_symmetry_multiplicity
 _atom_site_fract_x
 _atom_site_fract_y
 _atom_site_fract_z
 _atom_site_occupancy
  Ni  Ni0  1  0.00062100  0.50044100  0.49986800  1
  Ni  Ni1  1  0.99888700  0.00053400  0.00007800  1
  Ni  Ni2  1  0.74624200  0.12233700  0.63089800  1
  Ni  Ni3  1  0.75012000  0.62536900  0.13202400  1
  Ni  Ni4  1  0.25011000  0.37470300  0.86789000  1
  Ni  Ni5  1  0.25394500  0.87742900  0.36921600  1
  Te  Te6  1  0.87676500  0.98780500  0.23202700  1
  Te  Te7  1  0.87378600  0.48602800  0.73042400  1
  Te  Te8  1  0.12631900  0.51350700  0.26953600  1
  Te  Te9  1  0.12334700  0.01167400  0.76799500  1
  Te  Te10  1  0.37045200  0.72342900  0.97803300  1
  Te  Te11  1  0.37211800  0.22497600  0.48077200  1
  Te  Te12  1  0.62835900  0.77495900  0.51923600  1
  Te  Te13  1  0.62893100  0.27680800  0.02200300  1
loop_
 _atom_site_moment_label
 _atom_site_moment_crystalaxis_x
 _atom_site_moment_crystalaxis_y
 _atom_site_moment_crystalaxis_z
  Ni0  0.00085470  -0.62436228  -1.07454432
  Ni1  -0.00056683  0.41407186  0.71262883
  Ni2  -0.00083072  0.60683808  1.04438470
  Ni3  -0.00085402  0.62386159  1.07368262
  Ni4  -0.00085539  0.62486297  1.07540603
  Ni5  -0.00083140  0.60733877  1.04524640
  Te6  0.00007814  -0.05707883  -0.09823420
  Te7  0.00007882  -0.05757952  -0.09909591
  Te8  0.00007882  -0.05757952  -0.09909591
  Te9  0.00007814  -0.05707883  -0.09823420
  Te10  0.00004798  -0.03504840  -0.06031925
  Te11  0.00003016  -0.02203043  -0.03791496
  Te12  0.00003016  -0.02203043  -0.03791496
  Te13  0.00004798  -0.03504840  -0.06031925
