# generated using pymatgen
data_RbCrSe2
_symmetry_space_group_name_H-M   'P 1'
_cell_length_a   3.92686179
_cell_length_b   31.25205957
_cell_length_c   3.92690052
_cell_angle_alpha   93.60404585
_cell_angle_beta   60.00063366
_cell_angle_gamma   89.99981197
_symmetry_Int_Tables_number   1
_chemical_formula_structural   RbCrSe2
_chemical_formula_sum   'Rb4 Cr4 Se8'
_cell_volume   416.25591321
_cell_formula_units_Z   4
loop_
 _symmetry_equiv_pos_site_id
 _symmetry_equiv_pos_as_xyz
  1  'x, y, z'
loop_
 _atom_site_type_symbol
 _atom_site_label
 _atom_site_symmetry_multiplicity
 _atom_site_fract_x
 _atom_site_fract_y
 _atom_site_fract_z
 _atom_site_occupancy
  Rb  Rb0  1  0.45851100  0.62437800  0.08297100  1
  Rb  Rb1  1  0.70852200  0.87437300  0.58295000  1
  Rb  Rb2  1  0.95851200  0.12437600  0.08297200  1
  Rb  Rb3  1  0.20852500  0.37437300  0.58294900  1
  Cr  Cr4  1  0.75051800  0.74846700  0.49899000  1
  Cr  Cr5  1  0.00052300  0.99845000  0.99896500  1
  Cr  Cr6  1  0.25050900  0.24846800  0.49900800  1
  Cr  Cr7  1  0.50054100  0.49844800  0.99894500  1
  Se  Se8  1  0.15293500  0.54154300  0.69412100  1
  Se  Se9  1  0.40260100  0.79156700  0.19478600  1
  Se  Se10  1  0.65291600  0.04155000  0.69415600  1
  Se  Se11  1  0.90260100  0.29156400  0.19478700  1
  Se  Se12  1  0.09823300  0.70560900  0.80352500  1
  Se  Se13  1  0.34815900  0.95561300  0.30367400  1
  Se  Se14  1  0.59823300  0.20560500  0.80352400  1
  Se  Se15  1  0.84816000  0.45561600  0.30367400  1
loop_
 _atom_site_moment_label
 _atom_site_moment_crystalaxis_x
 _atom_site_moment_crystalaxis_y
 _atom_site_moment_crystalaxis_z
  Rb0  0.00011976  0.00096332  0.00024083
  Rb1  0.00083830  0.00674323  0.00168584
  Rb2  -0.00011976  -0.00096332  -0.00024083
  Rb3  -0.00083830  -0.00674323  -0.00168584
  Cr4  -0.39807316  -3.20207059  -0.80053474
  Cr5  -0.39807316  -3.20207059  -0.80053474
  Cr6  0.39807316  3.20207059  0.80053474
  Cr7  0.39807316  3.20207059  0.80053474
  Se8  -0.02131679  -0.17147069  -0.04286859
  Se9  0.02119704  0.17050737  0.04262775
  Se10  0.02131679  0.17147069  0.04286859
  Se11  -0.02131679  -0.17147069  -0.04286859
  Se12  0.02059825  0.16569078  0.04142358
  Se13  0.02059825  0.16569078  0.04142358
  Se14  -0.02059825  -0.16569078  -0.04142358
  Se15  -0.02059825  -0.16569078  -0.04142358
