# generated using pymatgen
data_Ni3Sn
_symmetry_space_group_name_H-M   'P 1'
_cell_length_a   4.18074991
_cell_length_b   4.22560471
_cell_length_c   4.18570047
_cell_angle_alpha   119.99898260
_cell_angle_beta   90.49455253
_cell_angle_gamma   59.59176316
_symmetry_Int_Tables_number   1
_chemical_formula_structural   Ni3Sn
_chemical_formula_sum   'Ni3 Sn1'
_cell_volume   52.18858912
_cell_formula_units_Z   1
loop_
 _symmetry_equiv_pos_site_id
 _symmetry_equiv_pos_as_xyz
  1  'x, y, z'
loop_
 _atom_site_type_symbol
 _atom_site_label
 _atom_site_symmetry_multiplicity
 _atom_site_fract_x
 _atom_site_fract_y
 _atom_site_fract_z
 _atom_site_occupancy
  Ni  Ni0  1  0.24621500  0.50134000  0.25004000  1
  Ni  Ni1  1  0.49928900  0.99973000  0.49989300  1
  Ni  Ni2  1  0.75366900  0.49858400  0.74994300  1
  Sn  Sn3  1  0.00082700  0.00034500  0.00012400  1
loop_
 _atom_site_moment_label
 _atom_site_moment_crystalaxis_x
 _atom_site_moment_crystalaxis_y
 _atom_site_moment_crystalaxis_z
  Ni0  0.00101787  0.21665954  0.21631616
  Ni1  0.00464842  0.98944518  0.98787701
  Ni2  0.00098034  0.20867209  0.20834137
  Sn3  -0.00019232  -0.04093567  -0.04087079
