# generated using pymatgen
data_Mg(CrS2)4
_symmetry_space_group_name_H-M   'P 1'
_cell_length_a   7.13124108
_cell_length_b   7.13122139
_cell_length_c   7.12941559
_cell_angle_alpha   60.08053598
_cell_angle_beta   60.08064607
_cell_angle_gamma   60.09018284
_symmetry_Int_Tables_number   1
_chemical_formula_structural   Mg(CrS2)4
_chemical_formula_sum   'Mg1 Cr4 S8'
_cell_volume   256.85721525
_cell_formula_units_Z   1
loop_
 _symmetry_equiv_pos_site_id
 _symmetry_equiv_pos_as_xyz
  1  'x, y, z'
loop_
 _atom_site_type_symbol
 _atom_site_label
 _atom_site_symmetry_multiplicity
 _atom_site_fract_x
 _atom_site_fract_y
 _atom_site_fract_z
 _atom_site_occupancy
  Mg  Mg0  1  0.87511100  0.87511300  0.87536700  1
  Cr  Cr1  1  0.49449000  0.49449100  0.49490100  1
  Cr  Cr2  1  0.49513600  0.49513400  0.01448500  1
  Cr  Cr3  1  0.49528000  0.01439600  0.49528000  1
  Cr  Cr4  1  0.01439400  0.49528000  0.49528700  1
  S  S5  1  0.25703200  0.25703200  0.25703500  1
  S  S6  1  0.73672600  0.73672500  0.28900400  1
  S  S7  1  0.28865800  0.73681900  0.73690900  1
  S  S8  1  0.73681900  0.28865700  0.73691000  1
  S  S9  1  0.72923400  0.25674300  0.25668500  1
  S  S10  1  0.25674400  0.72923300  0.25668500  1
  S  S11  1  0.73717400  0.73717400  0.73724700  1
  S  S12  1  0.25663800  0.25663800  0.72946900  1
loop_
 _atom_site_moment_label
 _atom_site_moment_crystalaxis_x
 _atom_site_moment_crystalaxis_y
 _atom_site_moment_crystalaxis_z
  Mg0  -0.00000172  -0.00000172  0.00600172
  Cr1  -0.00087848  -0.00087939  3.06687654
  Cr2  -0.00087934  -0.00088025  3.06987740
  Cr3  -0.00087963  -0.00088054  3.07087769
  Cr4  -0.00087963  -0.00088054  3.07087769
  S5  0.00008596  0.00008605  -0.30008577
  S6  0.00006418  0.00006425  -0.22406404
  S7  0.00006418  0.00006425  -0.22406404
  S8  0.00006418  0.00006425  -0.22406404
  S9  0.00008624  0.00008633  -0.30108605
  S10  0.00008624  0.00008633  -0.30108605
  S11  0.00006361  0.00006367  -0.22206347
  S12  0.00008624  0.00008633  -0.30108605
