# generated using pymatgen
data_LiMnSb
_symmetry_space_group_name_H-M   'P 1'
_cell_length_a   4.65884600
_cell_length_b   4.65818300
_cell_length_c   13.33617800
_cell_angle_alpha   89.99946851
_cell_angle_beta   89.99981140
_cell_angle_gamma   90.00506725
_symmetry_Int_Tables_number   1
_chemical_formula_structural   LiMnSb
_chemical_formula_sum   'Li4 Mn4 Sb4'
_cell_volume   289.41849685
_cell_formula_units_Z   4
loop_
 _symmetry_equiv_pos_site_id
 _symmetry_equiv_pos_as_xyz
  1  'x, y, z'
loop_
 _atom_site_type_symbol
 _atom_site_label
 _atom_site_symmetry_multiplicity
 _atom_site_fract_x
 _atom_site_fract_y
 _atom_site_fract_z
 _atom_site_occupancy
  Li  Li0  1  0.50000100  0.50000100  0.24999600  1
  Li  Li1  1  0.49999700  0.49999600  0.75000200  1
  Li  Li2  1  0.99999800  0.99999900  0.25000400  1
  Li  Li3  1  0.00000100  0.99999800  0.74999800  1
  Mn  Mn4  1  0.50000100  0.50002500  0.50002700  1
  Mn  Mn5  1  0.99997600  0.00002800  0.99997500  1
  Mn  Mn6  1  0.49999300  0.50000300  0.00001900  1
  Mn  Mn7  1  0.00003100  0.99995000  0.49997900  1
  Sb  Sb8  1  0.99999800  0.49999000  0.37533000  1
  Sb  Sb9  1  0.00000100  0.50000000  0.87532800  1
  Sb  Sb10  1  0.49999900  0.00000000  0.12467100  1
  Sb  Sb11  1  0.50000400  0.00001000  0.62467200  1
loop_
 _atom_site_moment_label
 _atom_site_moment_crystalaxis_x
 _atom_site_moment_crystalaxis_y
 _atom_site_moment_crystalaxis_z
  Mn4  0.00000716  0.00001875  -4.54600000
  Mn5  0.00000716  0.00001875  -4.54600000
  Mn6  -0.00000716  -0.00001875  4.54600000
  Mn7  -0.00000716  -0.00001875  4.54600000
