# generated using pymatgen
data_GaCo3
_symmetry_space_group_name_H-M   'P 1'
_cell_length_a   4.37944802
_cell_length_b   4.37936081
_cell_length_c   4.37926325
_cell_angle_alpha   130.40151944
_cell_angle_beta   130.39746588
_cell_angle_gamma   72.76337472
_symmetry_Int_Tables_number   1
_chemical_formula_structural   GaCo3
_chemical_formula_sum   'Ga1 Co3'
_cell_volume   47.58883324
_cell_formula_units_Z   1
loop_
 _symmetry_equiv_pos_site_id
 _symmetry_equiv_pos_as_xyz
  1  'x, y, z'
loop_
 _atom_site_type_symbol
 _atom_site_label
 _atom_site_symmetry_multiplicity
 _atom_site_fract_x
 _atom_site_fract_y
 _atom_site_fract_z
 _atom_site_occupancy
  Ga  Ga0  1  0.00000000  0.00000000  0.00000000  1
  Co  Co1  1  0.74992300  0.25004000  0.49995200  1
  Co  Co2  1  0.25007600  0.74996000  0.50004800  1
  Co  Co3  1  0.50000000  0.50000000  0.00000000  1
loop_
 _atom_site_moment_label
 _atom_site_moment_crystalaxis_x
 _atom_site_moment_crystalaxis_y
 _atom_site_moment_crystalaxis_z
  Ga0  -0.00005281  -0.00005479  -0.06806972
  Co1  0.00123489  0.00128117  1.59163024
  Co2  0.00123489  0.00128117  1.59163024
  Co3  0.00130013  0.00134885  1.67571636
