# generated using pymatgen
data_BeAsRu2
_symmetry_space_group_name_H-M   'P 1'
_cell_length_a   9.74822969
_cell_length_b   9.74720259
_cell_length_c   16.15699907
_cell_angle_alpha   103.90127471
_cell_angle_beta   85.63252527
_cell_angle_gamma   61.59810908
_symmetry_Int_Tables_number   1
_chemical_formula_structural   BeAsRu2
_chemical_formula_sum   'Be2 As2 Ru4'
_cell_volume   1277.84971421
_cell_formula_units_Z   2
loop_
 _symmetry_equiv_pos_site_id
 _symmetry_equiv_pos_as_xyz
  1  'x, y, z'
loop_
 _atom_site_type_symbol
 _atom_site_label
 _atom_site_symmetry_multiplicity
 _atom_site_fract_x
 _atom_site_fract_y
 _atom_site_fract_z
 _atom_site_occupancy
  Be  Be0  1  0.99999900  0.00000000  0.00000100  1
  Be  Be1  1  0.50000200  0.99999800  0.49999800  1
  As  As2  1  0.74999800  0.99999900  0.25000100  1
  As  As3  1  0.24999900  0.00000000  0.75000000  1
  Ru  Ru4  1  0.37984000  0.00000500  0.62020100  1
  Ru  Ru5  1  0.12015900  0.99999600  0.87980100  1
  Ru  Ru6  1  0.87984300  0.00000700  0.12019500  1
  Ru  Ru7  1  0.62015800  0.99999500  0.37980300  1
loop_
 _atom_site_moment_label
 _atom_site_moment_crystalaxis_x
 _atom_site_moment_crystalaxis_y
 _atom_site_moment_crystalaxis_z
  As2  -0.23291963  0.46438575  0.38608808
  As3  0.23291963  -0.46438575  -0.38608808
  Ru4  1.29132644  -2.57459456  -2.14050553
  Ru5  1.29132644  -2.57459456  -2.14050553
  Ru6  -1.29132644  2.57459456  2.14050553
  Ru7  -1.29132644  2.57459456  2.14050553
