# generated using pymatgen
data_Cr3Te4
_symmetry_space_group_name_H-M   'P 1'
_cell_length_a   7.45221230
_cell_length_b   7.45221396
_cell_length_c   7.10260202
_cell_angle_alpha   63.03528611
_cell_angle_beta   63.03529141
_cell_angle_gamma   31.64624229
_symmetry_Int_Tables_number   1
_chemical_formula_structural   Cr3Te4
_chemical_formula_sum   'Cr3 Te4'
_cell_volume   182.52909163
_cell_formula_units_Z   1
loop_
 _symmetry_equiv_pos_site_id
 _symmetry_equiv_pos_as_xyz
  1  'x, y, z'
loop_
 _atom_site_type_symbol
 _atom_site_label
 _atom_site_symmetry_multiplicity
 _atom_site_fract_x
 _atom_site_fract_y
 _atom_site_fract_z
 _atom_site_occupancy
  Cr  Cr0  1  0.00000000  0.00000100  0.99999900  1
  Cr  Cr1  1  0.25988000  0.25988100  0.72056100  1
  Cr  Cr2  1  0.74011900  0.74012000  0.27944000  1
  Te  Te3  1  0.36619400  0.36619300  0.97490100  1
  Te  Te4  1  0.63380700  0.63380600  0.02509800  1
  Te  Te5  1  0.12045200  0.12045200  0.54822700  1
  Te  Te6  1  0.87954800  0.87954800  0.45177300  1
loop_
 _atom_site_moment_label
 _atom_site_moment_crystalaxis_x
 _atom_site_moment_crystalaxis_y
 _atom_site_moment_crystalaxis_z
  Cr0  -0.00018286  -0.00018411  3.74216639
  Cr1  -0.00017704  -0.00017825  3.62316109
  Cr2  -0.00017704  -0.00017825  3.62316109
  Te3  0.00001314  0.00001324  -0.26901196
  Te4  0.00001314  0.00001324  -0.26901196
  Te5  0.00001564  0.00001574  -0.32001423
  Te6  0.00001564  0.00001574  -0.32001423
