# generated using pymatgen
data_Ba(MnP)2
_symmetry_space_group_name_H-M   'P 1'
_cell_length_a   4.19377107
_cell_length_b   4.19370792
_cell_length_c   7.30071755
_cell_angle_alpha   106.69205414
_cell_angle_beta   106.69068621
_cell_angle_gamma   90.00256048
_symmetry_Int_Tables_number   1
_chemical_formula_structural   Ba(MnP)2
_chemical_formula_sum   'Ba1 Mn2 P2'
_cell_volume   117.33114674
_cell_formula_units_Z   1
loop_
 _symmetry_equiv_pos_site_id
 _symmetry_equiv_pos_as_xyz
  1  'x, y, z'
loop_
 _atom_site_type_symbol
 _atom_site_label
 _atom_site_symmetry_multiplicity
 _atom_site_fract_x
 _atom_site_fract_y
 _atom_site_fract_z
 _atom_site_occupancy
  Ba  Ba0  1  0.99999900  0.00000100  0.00000000  1
  Mn  Mn1  1  0.74999200  0.24999600  0.49999400  1
  Mn  Mn2  1  0.25000900  0.75000300  0.50000600  1
  P  P3  1  0.63980200  0.63979200  0.27964100  1
  P  P4  1  0.36019800  0.36020800  0.72036000  1
loop_
 _atom_site_moment_label
 _atom_site_moment_crystalaxis_x
 _atom_site_moment_crystalaxis_y
 _atom_site_moment_crystalaxis_z
  Mn1  -0.07291975  -0.07296248  -4.46189480
  Mn2  0.07291975  0.07296248  4.46189480
