# generated using pymatgen
data_Na(CrS2)2
_symmetry_space_group_name_H-M   'P 1'
_cell_length_a   3.47194800
_cell_length_b   5.92595016
_cell_length_c   6.99531351
_cell_angle_alpha   89.85746149
_cell_angle_beta   90.00000819
_cell_angle_gamma   89.99999033
_symmetry_Int_Tables_number   1
_chemical_formula_structural   Na(CrS2)2
_chemical_formula_sum   'Na1 Cr2 S4'
_cell_volume   143.92526757
_cell_formula_units_Z   1
loop_
 _symmetry_equiv_pos_site_id
 _symmetry_equiv_pos_as_xyz
  1  'x, y, z'
loop_
 _atom_site_type_symbol
 _atom_site_label
 _atom_site_symmetry_multiplicity
 _atom_site_fract_x
 _atom_site_fract_y
 _atom_site_fract_z
 _atom_site_occupancy
  Na  Na0  1  0.00000000  0.00000000  0.50000000  1
  Cr  Cr1  1  0.50000000  0.50000000  0.00000000  1
  Cr  Cr2  1  0.00000000  0.00000000  0.00000000  1
  S  S3  1  0.00000000  0.33427700  0.19719300  1
  S  S4  1  0.50000000  0.83486000  0.19870800  1
  S  S5  1  0.50000000  0.16514000  0.80129200  1
  S  S6  1  0.00000000  0.66572300  0.80280700  1
loop_
 _atom_site_moment_label
 _atom_site_moment_crystalaxis_x
 _atom_site_moment_crystalaxis_y
 _atom_site_moment_crystalaxis_z
  Cr1  0.00000044  -0.00116054  3.05200267
  Cr2  0.00000044  -0.00116206  3.05600267
  S3  -0.00000003  0.00008936  -0.23500021
  S4  -0.00000003  0.00007947  -0.20900018
  S5  -0.00000003  0.00007985  -0.21000018
  S6  -0.00000003  0.00008936  -0.23500021
