# generated using pymatgen
data_Li3MnAs2
_symmetry_space_group_name_H-M   'P 1'
_cell_length_a   4.31423000
_cell_length_b   4.31407300
_cell_length_c   6.10101800
_cell_angle_alpha   89.99714209
_cell_angle_beta   89.99824074
_cell_angle_gamma   90.00302802
_symmetry_Int_Tables_number   1
_chemical_formula_structural   Li3MnAs2
_chemical_formula_sum   'Li3 Mn1 As2'
_cell_volume   113.55155601
_cell_formula_units_Z   1
loop_
 _symmetry_equiv_pos_site_id
 _symmetry_equiv_pos_as_xyz
  1  'x, y, z'
loop_
 _atom_site_type_symbol
 _atom_site_label
 _atom_site_symmetry_multiplicity
 _atom_site_fract_x
 _atom_site_fract_y
 _atom_site_fract_z
 _atom_site_occupancy
  Li  Li0  1  0.50000500  0.49998300  0.00000000  1
  Li  Li1  1  0.99999200  0.00000900  0.99999600  1
  Li  Li2  1  0.49999200  0.50001700  0.50000000  1
  Mn  Mn3  1  0.00000500  0.99998800  0.49999900  1
  As  As4  1  0.00001400  0.50000600  0.25642000  1
  As  As5  1  0.49999200  0.99999700  0.74358400  1
loop_
 _atom_site_moment_label
 _atom_site_moment_crystalaxis_x
 _atom_site_moment_crystalaxis_y
 _atom_site_moment_crystalaxis_z
  Li0  -0.00000003  -0.00000005  0.00200000
  Li1  0.00000003  0.00000005  -0.00200000
  Li2  0.00000008  0.00000013  -0.00500000
  Mn3  -0.00006846  -0.00011142  4.44300001
  As4  0.00000290  0.00000471  -0.18800000
  As5  0.00000290  0.00000471  -0.18800000
