# generated using pymatgen
data_Cr2Se3
_symmetry_space_group_name_H-M   'P 1'
_cell_length_a   6.43559800
_cell_length_b   6.43551005
_cell_length_c   11.97669700
_cell_angle_alpha   90.00053403
_cell_angle_beta   90.00069166
_cell_angle_gamma   120.00026161
_symmetry_Int_Tables_number   1
_chemical_formula_structural   Cr2Se3
_chemical_formula_sum   'Cr8 Se12'
_cell_volume   429.57443771
_cell_formula_units_Z   4
loop_
 _symmetry_equiv_pos_site_id
 _symmetry_equiv_pos_as_xyz
  1  'x, y, z'
loop_
 _atom_site_type_symbol
 _atom_site_label
 _atom_site_symmetry_multiplicity
 _atom_site_fract_x
 _atom_site_fract_y
 _atom_site_fract_z
 _atom_site_occupancy
  Cr  Cr0  1  0.66666600  0.33333200  0.75000200  1
  Cr  Cr1  1  0.33333400  0.66666800  0.24999800  1
  Cr  Cr2  1  0.00000000  0.00000000  0.00000000  1
  Cr  Cr3  1  0.00000000  0.00000000  0.50000000  1
  Cr  Cr4  1  0.66667000  0.33332500  0.01168200  1
  Cr  Cr5  1  0.33331400  0.66665600  0.51168100  1
  Cr  Cr6  1  0.33333000  0.66667400  0.98831700  1
  Cr  Cr7  1  0.66668600  0.33334400  0.48831900  1
  Se  Se8  1  0.67356900  0.65981700  0.61947900  1
  Se  Se9  1  0.98625100  0.32643500  0.61948500  1
  Se  Se10  1  0.34018700  0.01376000  0.61948000  1
  Se  Se11  1  0.01375300  0.34018700  0.11948400  1
  Se  Se12  1  0.32643600  0.98626600  0.11948500  1
  Se  Se13  1  0.65981000  0.67357600  0.11948200  1
  Se  Se14  1  0.32643100  0.34018300  0.38052100  1
  Se  Se15  1  0.01374800  0.67356500  0.38051500  1
  Se  Se16  1  0.65981300  0.98624100  0.38052100  1
  Se  Se17  1  0.98624700  0.65981400  0.88051600  1
  Se  Se18  1  0.67356400  0.01373300  0.88051500  1
  Se  Se19  1  0.34019000  0.32642400  0.88051800  1
loop_
 _atom_site_moment_label
 _atom_site_moment_crystalaxis_x
 _atom_site_moment_crystalaxis_y
 _atom_site_moment_crystalaxis_z
  Cr0  0.00003744  0.00003440  3.36600000
  Cr1  0.00003744  0.00003440  3.36600000
  Cr2  0.00003623  0.00003330  3.25800000
  Cr3  0.00003623  0.00003330  3.25800000
  Cr4  0.00003663  0.00003366  3.29400000
  Cr5  0.00003663  0.00003366  3.29400000
  Cr6  0.00003663  0.00003366  3.29400000
  Cr7  0.00003663  0.00003366  3.29400000
  Se8  -0.00000266  -0.00000244  -0.23900000
  Se9  -0.00000266  -0.00000244  -0.23900000
  Se10  -0.00000266  -0.00000244  -0.23900000
  Se11  -0.00000266  -0.00000244  -0.23900000
  Se12  -0.00000266  -0.00000244  -0.23900000
  Se13  -0.00000266  -0.00000244  -0.23900000
  Se14  -0.00000266  -0.00000244  -0.23900000
  Se15  -0.00000266  -0.00000244  -0.23900000
  Se16  -0.00000266  -0.00000244  -0.23900000
  Se17  -0.00000266  -0.00000244  -0.23900000
  Se18  -0.00000266  -0.00000244  -0.23900000
  Se19  -0.00000266  -0.00000244  -0.23900000
