# generated using pymatgen
data_Cr3Ga
_symmetry_space_group_name_H-M   'P 1'
_cell_length_a   5.08943723
_cell_length_b   5.08984822
_cell_length_c   5.09189728
_cell_angle_alpha   89.97320028
_cell_angle_beta   90.02731850
_cell_angle_gamma   90.02096435
_symmetry_Int_Tables_number   1
_chemical_formula_structural   Cr3Ga
_chemical_formula_sum   'Cr6 Ga2'
_cell_volume   131.90282679
_cell_formula_units_Z   2
loop_
 _symmetry_equiv_pos_site_id
 _symmetry_equiv_pos_as_xyz
  1  'x, y, z'
loop_
 _atom_site_type_symbol
 _atom_site_label
 _atom_site_symmetry_multiplicity
 _atom_site_fract_x
 _atom_site_fract_y
 _atom_site_fract_z
 _atom_site_occupancy
  Cr  Cr0  1  0.99397300  0.49395000  0.75000500  1
  Cr  Cr1  1  0.50581100  0.74994000  0.00591300  1
  Cr  Cr2  1  0.24994300  0.00583400  0.49411200  1
  Cr  Cr3  1  0.00602800  0.50604900  0.24999700  1
  Cr  Cr4  1  0.49419100  0.25005900  0.99408900  1
  Cr  Cr5  1  0.75005300  0.99416800  0.50588300  1
  Ga  Ga6  1  0.00000600  0.99999200  0.99999200  1
  Ga  Ga7  1  0.49999300  0.50000700  0.50000800  1
loop_
 _atom_site_moment_label
 _atom_site_moment_crystalaxis_x
 _atom_site_moment_crystalaxis_y
 _atom_site_moment_crystalaxis_z
  Cr0  -0.00069594  -3.81000050  0.00089210
  Cr1  -0.00069594  -3.81000050  0.00089210
  Cr2  -0.00069594  -3.81000050  0.00089210
  Cr3  0.00069594  3.81000050  -0.00089210
  Cr4  0.00069594  3.81000050  -0.00089210
  Cr5  0.00069594  3.81000050  -0.00089210
