# generated using pymatgen
data_KCr3S5
_symmetry_space_group_name_H-M   'P 1'
_cell_length_a   3.57750352
_cell_length_b   9.95526951
_cell_length_c   10.88472633
_cell_angle_alpha   72.72924476
_cell_angle_beta   80.53851513
_cell_angle_gamma   79.64848167
_symmetry_Int_Tables_number   1
_chemical_formula_structural   KCr3S5
_chemical_formula_sum   'K2 Cr6 S10'
_cell_volume   361.60292159
_cell_formula_units_Z   2
loop_
 _symmetry_equiv_pos_site_id
 _symmetry_equiv_pos_as_xyz
  1  'x, y, z'
loop_
 _atom_site_type_symbol
 _atom_site_label
 _atom_site_symmetry_multiplicity
 _atom_site_fract_x
 _atom_site_fract_y
 _atom_site_fract_z
 _atom_site_occupancy
  K  K0  1  0.74389300  0.33632800  0.17618100  1
  K  K1  1  0.25610000  0.66367200  0.82381500  1
  Cr  Cr2  1  0.83605500  0.93950900  0.38839900  1
  Cr  Cr3  1  0.16393500  0.06049200  0.61160000  1
  Cr  Cr4  1  0.50003600  0.99999700  0.99999900  1
  Cr  Cr5  1  0.49998400  0.50000100  0.50000000  1
  Cr  Cr6  1  0.01765600  0.73696600  0.22766500  1
  Cr  Cr7  1  0.98233800  0.26303500  0.77233700  1
  S  S8  1  0.92576400  0.99770800  0.15079200  1
  S  S9  1  0.07428900  0.00229200  0.84920800  1
  S  S10  1  0.59524700  0.73306300  0.07648300  1
  S  S11  1  0.40475600  0.26693500  0.92351900  1
  S  S12  1  0.42614100  0.75691900  0.39082200  1
  S  S13  1  0.57384200  0.24308100  0.60917900  1
  S  S14  1  0.25651500  0.10440700  0.38261800  1
  S  S15  1  0.74347600  0.89559300  0.61738200  1
  S  S16  1  0.08213800  0.48963600  0.34589800  1
  S  S17  1  0.91783700  0.51036400  0.65410200  1
loop_
 _atom_site_moment_label
 _atom_site_moment_crystalaxis_x
 _atom_site_moment_crystalaxis_y
 _atom_site_moment_crystalaxis_z
  Cr2  0.00272100  -0.00968522  -3.10655806
  Cr3  0.00272100  -0.00968522  -3.10655806
  Cr4  -0.00272713  0.00970703  3.11355257
  Cr5  -0.00274463  0.00976933  3.13353686
  Cr6  -0.00273413  0.00973195  3.12154628
  Cr7  -0.00273413  0.00973195  3.12154628
  S8  0.00006389  -0.00022741  -0.07294266
  S9  0.00006389  -0.00022741  -0.07294266
  S10  0.00012865  -0.00045794  -0.14688454
  S11  0.00012865  -0.00045794  -0.14688454
  S12  0.00004026  -0.00014330  -0.04596387
  S13  0.00004026  -0.00014330  -0.04596387
  S14  -0.00013303  0.00047351  0.15188061
  S15  -0.00013303  0.00047351  0.15188061
  S16  0.00009977  -0.00035514  -0.11391046
  S17  0.00009977  -0.00035514  -0.11391046
