# generated using pymatgen
data_Mg(MnGe)6
_symmetry_space_group_name_H-M   'P 1'
_cell_length_a   5.69695901
_cell_length_b   5.69671744
_cell_length_c   8.76398900
_cell_angle_alpha   89.99948463
_cell_angle_beta   90.00101934
_cell_angle_gamma   120.00696002
_symmetry_Int_Tables_number   1
_chemical_formula_structural   Mg(MnGe)6
_chemical_formula_sum   'Mg1 Mn6 Ge6'
_cell_volume   246.30303647
_cell_formula_units_Z   1
loop_
 _symmetry_equiv_pos_site_id
 _symmetry_equiv_pos_as_xyz
  1  'x, y, z'
loop_
 _atom_site_type_symbol
 _atom_site_label
 _atom_site_symmetry_multiplicity
 _atom_site_fract_x
 _atom_site_fract_y
 _atom_site_fract_z
 _atom_site_occupancy
  Mg  Mg0  1  0.00000300  0.00000700  0.00000900  1
  Mn  Mn1  1  0.99998300  0.49998700  0.74942000  1
  Mn  Mn2  1  0.00001600  0.50001800  0.25056500  1
  Mn  Mn3  1  0.50001400  0.00002400  0.74942700  1
  Mn  Mn4  1  0.49998800  0.99998100  0.25055200  1
  Mn  Mn5  1  0.50000800  0.49999100  0.74940800  1
  Mn  Mn6  1  0.49999800  0.50001400  0.25057300  1
  Ge  Ge7  1  0.00000100  0.00000000  0.66587000  1
  Ge  Ge8  1  0.00000500  0.00001300  0.33424200  1
  Ge  Ge9  1  0.33338200  0.66678800  0.49993600  1
  Ge  Ge10  1  0.66659500  0.33316700  0.49988000  1
  Ge  Ge11  1  0.33334100  0.66669200  0.00004100  1
  Ge  Ge12  1  0.66666500  0.33331700  0.00007700  1
loop_
 _atom_site_moment_label
 _atom_site_moment_crystalaxis_x
 _atom_site_moment_crystalaxis_y
 _atom_site_moment_crystalaxis_z
  Mg0  -0.00000021  0.00000000  -0.02300000
  Mn1  0.00003849  -0.00000056  4.30100000
  Mn2  0.00003849  -0.00000056  4.30100000
  Mn3  0.00003849  -0.00000056  4.30100000
  Mn4  0.00003849  -0.00000056  4.30100000
  Mn5  0.00003849  -0.00000056  4.30100000
  Mn6  0.00003849  -0.00000056  4.30100000
  Ge7  -0.00000152  0.00000002  -0.17000000
  Ge8  -0.00000152  0.00000002  -0.17000000
  Ge9  -0.00000121  0.00000002  -0.13500000
  Ge10  -0.00000121  0.00000002  -0.13500000
  Ge11  -0.00000114  0.00000002  -0.12700000
  Ge12  -0.00000114  0.00000002  -0.12700000
