# generated using pymatgen
data_Cs2Mn3S4
_symmetry_space_group_name_H-M   'P 1'
_cell_length_a   5.99368131
_cell_length_b   9.82583578
_cell_length_c   9.82583014
_cell_angle_alpha   75.92423333
_cell_angle_beta   72.24747936
_cell_angle_gamma   72.24754441
_symmetry_Int_Tables_number   1
_chemical_formula_structural   Cs2Mn3S4
_chemical_formula_sum   'Cs4 Mn6 S8'
_cell_volume   517.62413378
_cell_formula_units_Z   2
loop_
 _symmetry_equiv_pos_site_id
 _symmetry_equiv_pos_as_xyz
  1  'x, y, z'
loop_
 _atom_site_type_symbol
 _atom_site_label
 _atom_site_symmetry_multiplicity
 _atom_site_fract_x
 _atom_site_fract_y
 _atom_site_fract_z
 _atom_site_occupancy
  Cs  Cs0  1  0.50003200  0.12710500  0.37284400  1
  Cs  Cs1  1  0.49997400  0.62715700  0.87289500  1
  Cs  Cs2  1  0.99997400  0.87289000  0.62716100  1
  Cs  Cs3  1  0.00002800  0.37284000  0.12711100  1
  Mn  Mn4  1  0.00000200  0.75051100  0.24948700  1
  Mn  Mn5  1  0.99999600  0.24948500  0.75051300  1
  Mn  Mn6  1  0.49999900  0.50003200  0.49996900  1
  Mn  Mn7  1  0.50000100  0.74796200  0.25203400  1
  Mn  Mn8  1  0.49999200  0.25203300  0.74797600  1
  Mn  Mn9  1  0.49999800  0.00000900  0.99999100  1
  S  S10  1  0.16484600  0.96357500  0.22412300  1
  S  S11  1  0.16504400  0.46431400  0.72375800  1
  S  S12  1  0.64696900  0.72375900  0.46431500  1
  S  S13  1  0.64752100  0.22411600  0.96358800  1
  S  S14  1  0.83495100  0.27624100  0.53568900  1
  S  S15  1  0.83515600  0.77587800  0.03642400  1
  S  S16  1  0.35248300  0.03641300  0.77588300  1
  S  S17  1  0.35303500  0.53568300  0.27623900  1
loop_
 _atom_site_moment_label
 _atom_site_moment_crystalaxis_x
 _atom_site_moment_crystalaxis_y
 _atom_site_moment_crystalaxis_z
  Mn4  -0.03139973  -2.86635139  -2.86635162
  Mn5  -0.03139973  -2.86635139  -2.86635162
  Mn6  -0.03155215  -2.88026572  -2.88026595
  Mn7  0.03090781  2.82144606  2.82144629
  Mn8  0.03090781  2.82144606  2.82144629
  Mn9  0.03160065  2.88469301  2.88469324
  S10  0.00011086  0.01011951  0.01011951
  S11  0.00002771  0.00252988  0.00252988
  S12  0.00002771  0.00252988  0.00252988
  S13  0.00011086  0.01011951  0.01011951
  S14  0.00002771  0.00252988  0.00252988
  S15  0.00011086  0.01011951  0.01011951
  S16  0.00011086  0.01011951  0.01011951
  S17  0.00002771  0.00252988  0.00252988
