# generated using pymatgen
data_Ca(MnGe)2
_symmetry_space_group_name_H-M   'P 1'
_cell_length_a   4.35791475
_cell_length_b   4.35791291
_cell_length_c   6.41273634
_cell_angle_alpha   109.88387006
_cell_angle_beta   109.88374491
_cell_angle_gamma   89.99670213
_symmetry_Int_Tables_number   1
_chemical_formula_structural   Ca(MnGe)2
_chemical_formula_sum   'Ca1 Mn2 Ge2'
_cell_volume   106.77446034
_cell_formula_units_Z   1
loop_
 _symmetry_equiv_pos_site_id
 _symmetry_equiv_pos_as_xyz
  1  'x, y, z'
loop_
 _atom_site_type_symbol
 _atom_site_label
 _atom_site_symmetry_multiplicity
 _atom_site_fract_x
 _atom_site_fract_y
 _atom_site_fract_z
 _atom_site_occupancy
  Ca  Ca0  1  0.00000000  0.00000000  0.00000000  1
  Mn  Mn1  1  0.25007800  0.74992100  0.50000000  1
  Mn  Mn2  1  0.74992100  0.25007900  0.49999900  1
  Ge  Ge3  1  0.38756700  0.38756700  0.77524000  1
  Ge  Ge4  1  0.61243400  0.61243400  0.22476100  1
loop_
 _atom_site_moment_label
 _atom_site_moment_crystalaxis_x
 _atom_site_moment_crystalaxis_y
 _atom_site_moment_crystalaxis_z
  Mn1  -0.09661096  -0.09661550  -4.47409166
  Mn2  0.09661096  0.09661550  4.47409166
