# generated using pymatgen
data_Ba(MnBi)2
_symmetry_space_group_name_H-M   'P 1'
_cell_length_a   4.63303323
_cell_length_b   4.63294593
_cell_length_c   8.19995401
_cell_angle_alpha   106.45651394
_cell_angle_beta   106.45564247
_cell_angle_gamma   89.94537444
_symmetry_Int_Tables_number   1
_chemical_formula_structural   Ba(MnBi)2
_chemical_formula_sum   'Ba1 Mn2 Bi2'
_cell_volume   161.28164497
_cell_formula_units_Z   1
loop_
 _symmetry_equiv_pos_site_id
 _symmetry_equiv_pos_as_xyz
  1  'x, y, z'
loop_
 _atom_site_type_symbol
 _atom_site_label
 _atom_site_symmetry_multiplicity
 _atom_site_fract_x
 _atom_site_fract_y
 _atom_site_fract_z
 _atom_site_occupancy
  Ba  Ba0  1  0.00000000  0.00000000  0.00000000  1
  Mn  Mn1  1  0.74994700  0.25003900  0.49999500  1
  Mn  Mn2  1  0.25005300  0.74996100  0.50000500  1
  Bi  Bi3  1  0.37267400  0.37268000  0.74497700  1
  Bi  Bi4  1  0.62732600  0.62732000  0.25502300  1
loop_
 _atom_site_moment_label
 _atom_site_moment_crystalaxis_x
 _atom_site_moment_crystalaxis_y
 _atom_site_moment_crystalaxis_z
  Mn1  -0.00013795  -0.00015950  -4.56208426
  Mn2  0.00013795  0.00015950  4.56208426
