# generated using pymatgen
data_GaFe3
_symmetry_space_group_name_H-M   'P 1'
_cell_length_a   3.90126144
_cell_length_b   3.77848339
_cell_length_c   3.90429499
_cell_angle_alpha   91.79290285
_cell_angle_beta   89.72090924
_cell_angle_gamma   88.19943577
_symmetry_Int_Tables_number   1
_chemical_formula_structural   GaFe3
_chemical_formula_sum   'Ga1 Fe3'
_cell_volume   57.49506788
_cell_formula_units_Z   1
loop_
 _symmetry_equiv_pos_site_id
 _symmetry_equiv_pos_as_xyz
  1  'x, y, z'
loop_
 _atom_site_type_symbol
 _atom_site_label
 _atom_site_symmetry_multiplicity
 _atom_site_fract_x
 _atom_site_fract_y
 _atom_site_fract_z
 _atom_site_occupancy
  Ga  Ga0  1  0.00000000  0.00000100  0.99999900  1
  Fe  Fe1  1  0.99999900  0.50000000  0.50000100  1
  Fe  Fe2  1  0.50000000  0.50000000  0.00000000  1
  Fe  Fe3  1  0.50000000  0.99999900  0.49999900  1
loop_
 _atom_site_moment_label
 _atom_site_moment_crystalaxis_x
 _atom_site_moment_crystalaxis_y
 _atom_site_moment_crystalaxis_z
  Ga0  0.00054710  -0.00295321  -0.19307198
  Fe1  -0.00928650  0.05012805  3.27722175
  Fe2  -0.00928650  0.05012805  3.27722175
  Fe3  -0.00852680  0.04602722  3.00912180
