# generated using pymatgen
data_MgMnTe4
_symmetry_space_group_name_H-M   'P 1'
_cell_length_a   7.10441939
_cell_length_b   7.09996100
_cell_length_c   14.19317926
_cell_angle_alpha   90.00033901
_cell_angle_beta   90.21331956
_cell_angle_gamma   89.99999977
_symmetry_Int_Tables_number   1
_chemical_formula_structural   MgMnTe4
_chemical_formula_sum   'Mg4 Mn4 Te16'
_cell_volume   715.91462099
_cell_formula_units_Z   4
loop_
 _symmetry_equiv_pos_site_id
 _symmetry_equiv_pos_as_xyz
  1  'x, y, z'
loop_
 _atom_site_type_symbol
 _atom_site_label
 _atom_site_symmetry_multiplicity
 _atom_site_fract_x
 _atom_site_fract_y
 _atom_site_fract_z
 _atom_site_occupancy
  Mg  Mg0  1  0.99994400  0.49999900  0.24997900  1
  Mg  Mg1  1  0.99992800  0.49995000  0.75000700  1
  Mg  Mg2  1  0.50001400  0.99998000  0.25003800  1
  Mg  Mg3  1  0.49993200  0.00004400  0.75000000  1
  Mn  Mn4  1  0.50038100  0.50011000  0.50005100  1
  Mn  Mn5  1  0.00011600  0.00016800  0.00000000  1
  Mn  Mn6  1  0.50008500  0.50000800  0.00007700  1
  Mn  Mn7  1  0.99992500  0.99992200  0.49982600  1
  Te  Te8  1  0.61432900  0.11521100  0.44441100  1
  Te  Te9  1  0.61433200  0.11521500  0.94441500  1
  Te  Te10  1  0.88563200  0.61521100  0.05559300  1
  Te  Te11  1  0.88563600  0.61521200  0.55559100  1
  Te  Te12  1  0.38562300  0.88477200  0.05559100  1
  Te  Te13  1  0.38562400  0.88476600  0.55559100  1
  Te  Te14  1  0.11434300  0.38477100  0.44441300  1
  Te  Te15  1  0.11433600  0.38476500  0.94441300  1
  Te  Te16  1  0.11313100  0.88776700  0.30791200  1
  Te  Te17  1  0.11314800  0.88776500  0.80791800  1
  Te  Te18  1  0.38681700  0.38776600  0.19208900  1
  Te  Te19  1  0.38681300  0.38776800  0.69208600  1
  Te  Te20  1  0.88680600  0.11221200  0.19208800  1
  Te  Te21  1  0.88682900  0.11219800  0.69208300  1
  Te  Te22  1  0.61314300  0.61221100  0.30791400  1
  Te  Te23  1  0.61313300  0.61220700  0.80791800  1
loop_
 _atom_site_moment_label
 _atom_site_moment_crystalaxis_x
 _atom_site_moment_crystalaxis_y
 _atom_site_moment_crystalaxis_z
  Mn4  -0.01087559  -0.00001351  -4.56602754
  Mn5  -0.01087559  -0.00001351  -4.56602754
  Mn6  0.01087559  0.00001351  4.56602754
  Mn7  0.01087559  0.00001351  4.56602754
  Te8  -0.00000715  0.00000000  -0.00300002
  Te9  0.00000715  0.00000000  0.00300002
  Te10  -0.00000715  0.00000000  -0.00300002
  Te11  0.00000715  0.00000000  0.00300002
  Te12  0.00000715  0.00000000  0.00300002
  Te13  -0.00000715  0.00000000  -0.00300002
  Te14  0.00000715  0.00000000  0.00300002
  Te15  -0.00000715  0.00000000  -0.00300002
  Te16  -0.00000715  0.00000000  -0.00300002
  Te17  0.00000715  0.00000000  0.00300002
  Te18  -0.00000715  0.00000000  -0.00300002
  Te19  0.00000715  0.00000000  0.00300002
  Te20  0.00000715  0.00000000  0.00300002
  Te21  -0.00000715  0.00000000  -0.00300002
  Te22  0.00000715  0.00000000  0.00300002
  Te23  -0.00000715  0.00000000  -0.00300002
