# generated using pymatgen
data_Na2MnSb2
_symmetry_space_group_name_H-M   'P 1'
_cell_length_a   7.13842270
_cell_length_b   7.14474661
_cell_length_c   14.92924700
_cell_angle_alpha   89.99993718
_cell_angle_beta   89.99998413
_cell_angle_gamma   89.37667842
_symmetry_Int_Tables_number   1
_chemical_formula_structural   Na2MnSb2
_chemical_formula_sum   'Na2 Mn1 Sb2'
_cell_volume   761.37970225
_cell_formula_units_Z   1
loop_
 _symmetry_equiv_pos_site_id
 _symmetry_equiv_pos_as_xyz
  1  'x, y, z'
loop_
 _atom_site_type_symbol
 _atom_site_label
 _atom_site_symmetry_multiplicity
 _atom_site_fract_x
 _atom_site_fract_y
 _atom_site_fract_z
 _atom_site_occupancy
  Na  Na0  1  0.50000000  0.50000000  0.62428600  1
  Na  Na1  1  0.50000000  0.50000000  0.37571400  1
  Mn  Mn2  1  0.50000000  0.50000000  0.00000000  1
  Sb  Sb3  1  0.50000000  0.50000000  0.17598600  1
  Sb  Sb4  1  0.50000000  0.50000000  0.82401400  1
loop_
 _atom_site_moment_label
 _atom_site_moment_crystalaxis_x
 _atom_site_moment_crystalaxis_y
 _atom_site_moment_crystalaxis_z
  Na0  0.00000000  -0.00000002  0.04600000
  Na1  0.00000000  -0.00000002  0.04600000
  Mn2  -0.00000060  -0.00000247  4.60700000
  Sb3  0.00000006  0.00000026  -0.49200000
  Sb4  0.00000006  0.00000026  -0.49200000
