# generated using pymatgen
data_Na2(CrSe2)3
_symmetry_space_group_name_H-M   'P 1'
_cell_length_a   6.38812036
_cell_length_b   6.39161738
_cell_length_c   7.51837488
_cell_angle_alpha   81.82900305
_cell_angle_beta   73.48761937
_cell_angle_gamma   60.00961889
_symmetry_Int_Tables_number   1
_chemical_formula_structural   Na2(CrSe2)3
_chemical_formula_sum   'Na2 Cr3 Se6'
_cell_volume   254.91166420
_cell_formula_units_Z   1
loop_
 _symmetry_equiv_pos_site_id
 _symmetry_equiv_pos_as_xyz
  1  'x, y, z'
loop_
 _atom_site_type_symbol
 _atom_site_label
 _atom_site_symmetry_multiplicity
 _atom_site_fract_x
 _atom_site_fract_y
 _atom_site_fract_z
 _atom_site_occupancy
  Na  Na0  1  0.16655500  0.66688500  0.50000000  1
  Na  Na1  1  0.83344400  0.33311400  0.50000000  1
  Cr  Cr2  1  0.00000000  0.00000000  0.00000000  1
  Cr  Cr3  1  0.33275200  0.33449200  0.00000000  1
  Cr  Cr4  1  0.66724700  0.66550900  0.00000000  1
  Se  Se5  1  0.93251400  0.66696800  0.20094400  1
  Se  Se6  1  0.26634800  0.00001900  0.20137300  1
  Se  Se7  1  0.59946400  0.33308900  0.20093800  1
  Se  Se8  1  0.73365400  0.99997600  0.79862700  1
  Se  Se9  1  0.06748300  0.33303200  0.79905600  1
  Se  Se10  1  0.40053800  0.66691500  0.79906200  1
loop_
 _atom_site_moment_label
 _atom_site_moment_crystalaxis_x
 _atom_site_moment_crystalaxis_y
 _atom_site_moment_crystalaxis_z
  Cr2  0.00632896  -0.00020360  3.22522458
  Cr3  0.00632896  -0.00020360  3.22522458
  Cr4  0.00632896  -0.00020360  3.22522458
  Se5  -0.00044324  0.00001426  -0.22587566
  Se6  -0.00043148  0.00001388  -0.21987896
  Se7  -0.00044324  0.00001426  -0.22587566
  Se8  -0.00043148  0.00001388  -0.21987896
  Se9  -0.00044324  0.00001426  -0.22587566
  Se10  -0.00044324  0.00001426  -0.22587566
