# generated using pymatgen
data_SrMnSb2
_symmetry_space_group_name_H-M   'P 1'
_cell_length_a   4.48736400
_cell_length_b   4.54044203
_cell_length_c   23.51802614
_cell_angle_alpha   89.98749332
_cell_angle_beta   90.00026652
_cell_angle_gamma   89.99954304
_symmetry_Int_Tables_number   1
_chemical_formula_structural   SrMnSb2
_chemical_formula_sum   'Sr4 Mn4 Sb8'
_cell_volume   479.17074252
_cell_formula_units_Z   4
loop_
 _symmetry_equiv_pos_site_id
 _symmetry_equiv_pos_as_xyz
  1  'x, y, z'
loop_
 _atom_site_type_symbol
 _atom_site_label
 _atom_site_symmetry_multiplicity
 _atom_site_fract_x
 _atom_site_fract_y
 _atom_site_fract_z
 _atom_site_occupancy
  Sr  Sr0  1  0.25002900  0.72549200  0.11222000  1
  Sr  Sr1  1  0.75004100  0.27450900  0.88779700  1
  Sr  Sr2  1  0.75003600  0.22550400  0.38779600  1
  Sr  Sr3  1  0.25003100  0.77446900  0.61222300  1
  Mn  Mn4  1  0.74961300  0.72432700  0.24961900  1
  Mn  Mn5  1  0.25020600  0.27623700  0.75037800  1
  Mn  Mn6  1  0.24990200  0.22357100  0.25031900  1
  Mn  Mn7  1  0.74999800  0.77597700  0.74961600  1
  Sb  Sb8  1  0.24994200  0.72399800  0.32538500  1
  Sb  Sb9  1  0.75007500  0.27580300  0.67461200  1
  Sb  Sb10  1  0.74999800  0.22432100  0.17460200  1
  Sb  Sb11  1  0.24999600  0.77587600  0.82539300  1
  Sb  Sb12  1  0.25003200  0.21282900  0.00179000  1
  Sb  Sb13  1  0.75003600  0.78711300  0.99822700  1
  Sb  Sb14  1  0.75002900  0.71282100  0.49822800  1
  Sb  Sb15  1  0.25003400  0.28715200  0.50179300  1
loop_
 _atom_site_moment_label
 _atom_site_moment_crystalaxis_x
 _atom_site_moment_crystalaxis_y
 _atom_site_moment_crystalaxis_z
  Mn4  -0.00001095  0.00049542  -4.51600008
  Mn5  -0.00001095  0.00049542  -4.51600008
  Mn6  0.00001095  -0.00049542  4.51600008
  Mn7  0.00001095  -0.00049542  4.51600008
  Sb8  0.00000000  -0.00000011  0.00100000
  Sb9  0.00000000  -0.00000011  0.00100000
  Sb10  0.00000000  0.00000011  -0.00100000
  Sb11  0.00000000  0.00000011  -0.00100000
