# generated using pymatgen
data_Mg(CoGe)6
_symmetry_space_group_name_H-M   'P 1'
_cell_length_a   5.05941396
_cell_length_b   7.81330100
_cell_length_c   5.02121700
_cell_angle_alpha   89.99962128
_cell_angle_beta   120.21706895
_cell_angle_gamma   90.00078651
_symmetry_Int_Tables_number   1
_chemical_formula_structural   Mg(CoGe)6
_chemical_formula_sum   'Mg1 Co6 Ge6'
_cell_volume   171.52217904
_cell_formula_units_Z   1
loop_
 _symmetry_equiv_pos_site_id
 _symmetry_equiv_pos_as_xyz
  1  'x, y, z'
loop_
 _atom_site_type_symbol
 _atom_site_label
 _atom_site_symmetry_multiplicity
 _atom_site_fract_x
 _atom_site_fract_y
 _atom_site_fract_z
 _atom_site_occupancy
  Mg  Mg0  1  0.99999900  0.00022500  0.00000100  1
  Co  Co1  1  0.49996700  0.25042200  0.49995200  1
  Co  Co2  1  0.49997500  0.75057400  0.00001200  1
  Co  Co3  1  0.50002800  0.75066600  0.50003600  1
  Co  Co4  1  0.50002800  0.24968100  0.99999200  1
  Co  Co5  1  0.00000300  0.24976400  0.49998500  1
  Co  Co6  1  0.00000100  0.74933300  0.50003300  1
  Ge  Ge7  1  0.33179000  0.49929500  0.66425700  1
  Ge  Ge8  1  0.66821500  0.49929200  0.33574100  1
  Ge  Ge9  1  0.33197000  0.00075300  0.66429000  1
  Ge  Ge10  1  0.66803400  0.00075800  0.33571100  1
  Ge  Ge11  1  0.99999700  0.66119200  0.99998800  1
  Ge  Ge12  1  0.99999300  0.33804300  0.00000100  1
loop_
 _atom_site_moment_label
 _atom_site_moment_crystalaxis_x
 _atom_site_moment_crystalaxis_y
 _atom_site_moment_crystalaxis_z
  Mg0  0.00000000  0.00100000  0.00000000
  Co1  0.00000206  0.29600000  0.00000008
  Co2  -0.00000677  -0.97400000  -0.00000026
  Co3  -0.00000629  -0.90500000  -0.00000025
  Co4  0.00000270  0.38900000  0.00000011
  Co5  -0.00000374  -0.53800000  -0.00000015
  Co6  0.00000541  0.77900000  0.00000021
  Ge7  0.00000000  -0.00100000  0.00000000
  Ge8  0.00000000  -0.00100000  0.00000000
  Ge9  0.00000000  0.00100000  0.00000000
  Ge10  0.00000000  0.00100000  0.00000000
  Ge11  0.00000015  0.02100000  0.00000000
  Ge12  -0.00000003  -0.00500000  0.00000000
