# generated using pymatgen
data_Sr2MnSn2
_symmetry_space_group_name_H-M   'P 1'
_cell_length_a   12.28733231
_cell_length_b   12.28733231
_cell_length_c   27.48647100
_cell_angle_alpha   90.00000000
_cell_angle_beta   90.00000000
_cell_angle_gamma   90.00000000
_symmetry_Int_Tables_number   1
_chemical_formula_structural   Sr2MnSn2
_chemical_formula_sum   'Sr4 Mn2 Sn4'
_cell_volume   4149.86713291
_cell_formula_units_Z   2
loop_
 _symmetry_equiv_pos_site_id
 _symmetry_equiv_pos_as_xyz
  1  'x, y, z'
loop_
 _atom_site_type_symbol
 _atom_site_label
 _atom_site_symmetry_multiplicity
 _atom_site_fract_x
 _atom_site_fract_y
 _atom_site_fract_z
 _atom_site_occupancy
  Sr  Sr0  1  0.50000000  0.00000000  0.67083800  1
  Sr  Sr1  1  0.00000000  0.50000000  0.67083800  1
  Sr  Sr2  1  0.50000000  0.00000000  0.32916200  1
  Sr  Sr3  1  0.00000000  0.50000000  0.32916200  1
  Mn  Mn4  1  0.00000000  0.50000000  0.00000000  1
  Mn  Mn5  1  0.50000000  0.00000000  0.00000000  1
  Sn  Sn6  1  0.50000000  0.00000000  0.21514700  1
  Sn  Sn7  1  0.00000000  0.50000000  0.21514700  1
  Sn  Sn8  1  0.50000000  0.00000000  0.78485300  1
  Sn  Sn9  1  0.00000000  0.50000000  0.78485300  1
loop_
 _atom_site_moment_label
 _atom_site_moment_crystalaxis_x
 _atom_site_moment_crystalaxis_y
 _atom_site_moment_crystalaxis_z
  Sr0  0.00000000  0.00000000  0.08600000
  Sr1  0.00000000  0.00000000  0.08600000
  Sr2  0.00000000  0.00000000  0.08600000
  Sr3  0.00000000  0.00000000  0.08600000
  Mn4  0.00000000  0.00000000  -4.75900000
  Mn5  0.00000000  0.00000000  4.76100000
  Sn6  0.00000000  0.00000000  0.74100000
  Sn7  0.00000000  0.00000000  0.74100000
  Sn8  0.00000000  0.00000000  0.74100000
  Sn9  0.00000000  0.00000000  0.74100000
