# generated using pymatgen
data_KFe2Se3
_symmetry_space_group_name_H-M   'P 1'
_cell_length_a   5.91023100
_cell_length_b   7.65352201
_cell_length_c   7.64805048
_cell_angle_alpha   102.29146318
_cell_angle_beta   90.00167795
_cell_angle_gamma   89.99876363
_symmetry_Int_Tables_number   1
_chemical_formula_structural   KFe2Se3
_chemical_formula_sum   'K2 Fe4 Se6'
_cell_volume   338.02238514
_cell_formula_units_Z   2
loop_
 _symmetry_equiv_pos_site_id
 _symmetry_equiv_pos_as_xyz
  1  'x, y, z'
loop_
 _atom_site_type_symbol
 _atom_site_label
 _atom_site_symmetry_multiplicity
 _atom_site_fract_x
 _atom_site_fract_y
 _atom_site_fract_z
 _atom_site_occupancy
  K  K0  1  0.24996100  0.33484900  0.66513900  1
  K  K1  1  0.74999000  0.66515800  0.33485900  1
  Fe  Fe2  1  0.50000900  0.84929500  0.84929900  1
  Fe  Fe3  1  0.50000300  0.14978300  0.14979000  1
  Fe  Fe4  1  0.99998500  0.85020800  0.85020200  1
  Fe  Fe5  1  0.00002500  0.15071800  0.15071400  1
  Se  Se6  1  0.25000200  0.87976900  0.12042900  1
  Se  Se7  1  0.74998400  0.12023300  0.87956500  1
  Se  Se8  1  0.24893700  0.83421800  0.59896200  1
  Se  Se9  1  0.75105800  0.59911400  0.83427900  1
  Se  Se10  1  0.74897700  0.16576300  0.40104300  1
  Se  Se11  1  0.25107000  0.40089100  0.16572000  1
loop_
 _atom_site_moment_label
 _atom_site_moment_crystalaxis_x
 _atom_site_moment_crystalaxis_y
 _atom_site_moment_crystalaxis_z
  Fe2  -0.00005342  0.01946904  -3.60080515
  Fe3  -0.00005368  0.01956625  -3.61878420
  Fe4  0.00005367  -0.01956085  3.61778537
  Fe5  0.00005342  -0.01946904  3.60080515
  Se8  0.00000010  -0.00003780  0.00699185
  Se9  0.00000010  -0.00003780  0.00699185
  Se10  -0.00000010  0.00003780  -0.00699185
  Se11  -0.00000010  0.00003780  -0.00699185
