# generated using pymatgen
data_Ca(FeSi)2
_symmetry_space_group_name_H-M   'P 1'
_cell_length_a   5.67616430
_cell_length_b   6.05072922
_cell_length_c   5.89997608
_cell_angle_alpha   60.82003559
_cell_angle_beta   89.99903110
_cell_angle_gamma   89.08357221
_symmetry_Int_Tables_number   1
_chemical_formula_structural   Ca(FeSi)2
_chemical_formula_sum   'Ca2 Fe4 Si4'
_cell_volume   176.88884175
_cell_formula_units_Z   2
loop_
 _symmetry_equiv_pos_site_id
 _symmetry_equiv_pos_as_xyz
  1  'x, y, z'
loop_
 _atom_site_type_symbol
 _atom_site_label
 _atom_site_symmetry_multiplicity
 _atom_site_fract_x
 _atom_site_fract_y
 _atom_site_fract_z
 _atom_site_occupancy
  Ca  Ca0  1  0.50000700  0.99997700  0.50001400  1
  Ca  Ca1  1  0.99999500  0.99997100  0.00000300  1
  Fe  Fe2  1  0.25001100  0.50000000  0.49872800  1
  Fe  Fe3  1  0.75003100  0.50000700  0.50128200  1
  Fe  Fe4  1  0.74996100  0.50000100  0.00086000  1
  Fe  Fe5  1  0.24999400  0.50000600  0.99914000  1
  Si  Si6  1  0.99872900  0.22555600  0.38758300  1
  Si  Si7  1  0.49873600  0.22556300  0.88683700  1
  Si  Si8  1  0.50127000  0.77446600  0.11314800  1
  Si  Si9  1  0.00126500  0.77445400  0.61240500  1
loop_
 _atom_site_moment_label
 _atom_site_moment_crystalaxis_x
 _atom_site_moment_crystalaxis_y
 _atom_site_moment_crystalaxis_z
  Fe2  -1.50456377  -3.08476389  1.50399346
  Fe3  -1.50456377  -3.08476389  1.50399346
  Fe4  1.50311196  3.08178728  -1.50254219
  Fe5  1.50311196  3.08178728  -1.50254219
