# generated using pymatgen
data_Cr2Se3
_symmetry_space_group_name_H-M   'P 1'
_cell_length_a   7.06705024
_cell_length_b   7.40271313
_cell_length_c   8.70137234
_cell_angle_alpha   89.38452357
_cell_angle_beta   104.21988206
_cell_angle_gamma   106.31249567
_symmetry_Int_Tables_number   1
_chemical_formula_structural   Cr2Se3
_chemical_formula_sum   'Cr8 Se12'
_cell_volume   422.67290731
_cell_formula_units_Z   4
loop_
 _symmetry_equiv_pos_site_id
 _symmetry_equiv_pos_as_xyz
  1  'x, y, z'
loop_
 _atom_site_type_symbol
 _atom_site_label
 _atom_site_symmetry_multiplicity
 _atom_site_fract_x
 _atom_site_fract_y
 _atom_site_fract_z
 _atom_site_occupancy
  Cr  Cr0  1  0.83001600  0.32990300  0.33021600  1
  Cr  Cr1  1  0.16998500  0.67009800  0.66978500  1
  Cr  Cr2  1  0.52527800  0.74849000  0.49888100  1
  Cr  Cr3  1  0.84531400  0.07488500  0.84169600  1
  Cr  Cr4  1  0.17945900  0.40649300  0.15468800  1
  Cr  Cr5  1  0.47472200  0.25151000  0.50111700  1
  Cr  Cr6  1  0.82053700  0.59350700  0.84531000  1
  Cr  Cr7  1  0.15468700  0.92511500  0.15830300  1
  Se  Se8  1  0.54084500  0.02155900  0.31027500  1
  Se  Se9  1  0.87613900  0.34938200  0.64091100  1
  Se  Se10  1  0.20893300  0.68336400  0.97288800  1
  Se  Se11  1  0.45915600  0.97844100  0.68972500  1
  Se  Se12  1  0.79106800  0.31663500  0.02711200  1
  Se  Se13  1  0.12386200  0.65061900  0.35909000  1
  Se  Se14  1  0.44258800  0.49104000  0.69526100  1
  Se  Se15  1  0.77901700  0.82245300  0.03171300  1
  Se  Se16  1  0.10304700  0.15053200  0.35495400  1
  Se  Se17  1  0.55741200  0.50895900  0.30473900  1
  Se  Se18  1  0.89695000  0.84946800  0.64504700  1
  Se  Se19  1  0.22098400  0.17754600  0.96828700  1
loop_
 _atom_site_moment_label
 _atom_site_moment_crystalaxis_x
 _atom_site_moment_crystalaxis_y
 _atom_site_moment_crystalaxis_z
  Cr0  0.00148503  0.00797378  3.39127043
  Cr1  0.00148503  0.00797378  3.39127043
  Cr2  0.00144606  0.00776451  3.30226333
  Cr3  0.00143599  0.00771042  3.27926150
  Cr4  0.00144387  0.00775275  3.29726293
  Cr5  0.00144606  0.00776451  3.30226333
  Cr6  0.00144387  0.00775275  3.29726293
  Cr7  0.00143599  0.00771042  3.27926150
  Se8  -0.00010423  -0.00055965  -0.23801898
  Se9  -0.00008890  -0.00047735  -0.20301619
  Se10  -0.00010948  -0.00058786  -0.25001994
  Se11  -0.00010423  -0.00055965  -0.23801898
  Se12  -0.00010948  -0.00058786  -0.25001994
  Se13  -0.00008890  -0.00047735  -0.20301619
  Se14  -0.00010204  -0.00054789  -0.23301858
  Se15  -0.00013182  -0.00070779  -0.30102400
  Se16  -0.00010773  -0.00057846  -0.24601962
  Se17  -0.00010204  -0.00054789  -0.23301858
  Se18  -0.00010773  -0.00057846  -0.24601962
  Se19  -0.00013182  -0.00070779  -0.30102400
