# generated using pymatgen
data_NaFeAs
_symmetry_space_group_name_H-M   'P 1'
_cell_length_a   4.13521546
_cell_length_b   19.50462498
_cell_length_c   7.15060070
_cell_angle_alpha   90.49574956
_cell_angle_beta   90.26689460
_cell_angle_gamma   89.90339122
_symmetry_Int_Tables_number   1
_chemical_formula_structural   NaFeAs
_chemical_formula_sum   'Na8 Fe8 As8'
_cell_volume   576.70898451
_cell_formula_units_Z   8
loop_
 _symmetry_equiv_pos_site_id
 _symmetry_equiv_pos_as_xyz
  1  'x, y, z'
loop_
 _atom_site_type_symbol
 _atom_site_label
 _atom_site_symmetry_multiplicity
 _atom_site_fract_x
 _atom_site_fract_y
 _atom_site_fract_z
 _atom_site_occupancy
  Na  Na0  1  0.00549100  0.64727500  0.32817700  1
  Na  Na1  1  0.50234700  0.64677800  0.83097700  1
  Na  Na2  1  0.99450000  0.35272700  0.67182100  1
  Na  Na3  1  0.49765900  0.35322200  0.16902600  1
  Na  Na4  1  0.99800300  0.18447500  0.00200800  1
  Na  Na5  1  0.49777700  0.18452400  0.50241500  1
  Na  Na6  1  0.00197800  0.81552500  0.99800600  1
  Na  Na7  1  0.50220800  0.81547700  0.49759000  1
  Fe  Fe8  1  0.50004100  0.50000200  0.49999300  1
  Fe  Fe9  1  0.99999400  0.49999600  0.99999500  1
  Fe  Fe10  1  0.00002200  0.00000100  0.00000700  1
  Fe  Fe11  1  0.49997100  0.00000000  0.50000700  1
  Fe  Fe12  1  0.99886800  0.05160000  0.33429500  1
  Fe  Fe13  1  0.49878100  0.05163900  0.83436500  1
  Fe  Fe14  1  0.00113800  0.94840100  0.66572100  1
  Fe  Fe15  1  0.50114200  0.94836200  0.16564800  1
  As  As16  1  0.00228800  0.90858000  0.33110300  1
  As  As17  1  0.50222300  0.90841800  0.83074200  1
  As  As18  1  0.99772500  0.09142300  0.66890900  1
  As  As19  1  0.49777800  0.09157400  0.16927800  1
  As  As20  1  0.99523700  0.44164400  0.33915600  1
  As  As21  1  0.49309600  0.44232300  0.83758000  1
  As  As22  1  0.00481900  0.55835700  0.66084300  1
  As  As23  1  0.50691300  0.55767600  0.16241300  1
loop_
 _atom_site_moment_label
 _atom_site_moment_crystalaxis_x
 _atom_site_moment_crystalaxis_y
 _atom_site_moment_crystalaxis_z
  Na0  -0.00000617  0.00700021  0.00003098
  Na1  0.00000705  -0.00800024  -0.00003541
  Na2  -0.00000617  0.00700021  0.00003098
  Na3  0.00000705  -0.00800024  -0.00003541
  Na4  -0.00000176  0.00200006  0.00000885
  Na5  -0.00000176  0.00200006  0.00000885
  Na6  -0.00000176  0.00200006  0.00000885
  Na7  -0.00000176  0.00200006  0.00000885
  Fe8  0.00305377  -3.46410247  -0.01533236
  Fe9  -0.00306435  3.47610283  0.01538547
  Fe10  -0.00282368  3.20309475  0.01417712
  Fe11  -0.00282633  3.20609484  0.01419040
  Fe12  -0.00279018  3.16509363  0.01400893
  Fe13  -0.00278578  3.16009348  0.01398680
  Fe14  -0.00278842  3.16309357  0.01400007
  Fe15  -0.00278489  3.15909345  0.01398237
  As16  -0.00003350  0.03800112  0.00016820
  As17  -0.00003438  0.03900115  0.00017262
  As18  -0.00003438  0.03900115  0.00017262
  As19  -0.00003350  0.03800112  0.00016820
  As20  -0.00002468  0.02800083  0.00012393
  As21  -0.00001058  0.01200035  0.00005311
  As22  -0.00002468  0.02800083  0.00012393
  As23  -0.00001058  0.01200035  0.00005311
