# generated using pymatgen
data_VTe
_symmetry_space_group_name_H-M   'P 1'
_cell_length_a   4.24670300
_cell_length_b   4.24669596
_cell_length_c   6.43349800
_cell_angle_alpha   89.99991738
_cell_angle_beta   90.00010740
_cell_angle_gamma   120.00000236
_symmetry_Int_Tables_number   1
_chemical_formula_structural   VTe
_chemical_formula_sum   'V2 Te2'
_cell_volume   100.48028312
_cell_formula_units_Z   2
loop_
 _symmetry_equiv_pos_site_id
 _symmetry_equiv_pos_as_xyz
  1  'x, y, z'
loop_
 _atom_site_type_symbol
 _atom_site_label
 _atom_site_symmetry_multiplicity
 _atom_site_fract_x
 _atom_site_fract_y
 _atom_site_fract_z
 _atom_site_occupancy
  V  V0  1  0.00000000  0.00000000  0.50000000  1
  V  V1  1  0.00000000  0.00000000  0.00000000  1
  Te  Te2  1  0.33333300  0.66666600  0.25000000  1
  Te  Te3  1  0.66666800  0.33333400  0.75000000  1
loop_
 _atom_site_moment_label
 _atom_site_moment_crystalaxis_x
 _atom_site_moment_crystalaxis_y
 _atom_site_moment_crystalaxis_z
  V0  -0.00000205  0.00000098  -2.72600000
  V1  0.00000205  -0.00000098  2.72600000
