# generated using pymatgen
data_MnTe
_symmetry_space_group_name_H-M   'P 1'
_cell_length_a   6.48490063
_cell_length_b   7.94553236
_cell_length_c   6.48489872
_cell_angle_alpha   65.91152735
_cell_angle_beta   89.99449276
_cell_angle_gamma   114.08853537
_symmetry_Int_Tables_number   1
_chemical_formula_structural   MnTe
_chemical_formula_sum   'Mn4 Te4'
_cell_volume   272.85201645
_cell_formula_units_Z   4
loop_
 _symmetry_equiv_pos_site_id
 _symmetry_equiv_pos_as_xyz
  1  'x, y, z'
loop_
 _atom_site_type_symbol
 _atom_site_label
 _atom_site_symmetry_multiplicity
 _atom_site_fract_x
 _atom_site_fract_y
 _atom_site_fract_z
 _atom_site_occupancy
  Mn  Mn0  1  0.50000000  0.00000100  0.49999900  1
  Mn  Mn1  1  0.75000100  0.50000100  0.74999900  1
  Mn  Mn2  1  0.00000100  0.00000100  0.99999900  1
  Mn  Mn3  1  0.25000100  0.50000100  0.24999900  1
  Te  Te4  1  0.37499800  0.24999900  0.62500000  1
  Te  Te5  1  0.62500000  0.74999900  0.87500200  1
  Te  Te6  1  0.87499900  0.24999900  0.12500000  1
  Te  Te7  1  0.12500000  0.74999900  0.37500100  1
loop_
 _atom_site_moment_label
 _atom_site_moment_crystalaxis_x
 _atom_site_moment_crystalaxis_y
 _atom_site_moment_crystalaxis_z
  Mn0  -1.62300467  -3.97701100  -1.62458309
  Mn1  -1.62300467  -3.97701100  -1.62458309
  Mn2  1.62300467  3.97701100  1.62458309
  Mn3  1.62300467  3.97701100  1.62458309
