# generated using pymatgen
data_Rb2Mn3Te4
_symmetry_space_group_name_H-M   'P 1'
_cell_length_a   6.64564294
_cell_length_b   10.61839462
_cell_length_c   10.61839574
_cell_angle_alpha   85.97302572
_cell_angle_beta   108.23056617
_cell_angle_gamma   71.76940886
_symmetry_Int_Tables_number   1
_chemical_formula_structural   Rb2Mn3Te4
_chemical_formula_sum   'Rb4 Mn6 Te8'
_cell_volume   664.12614421
_cell_formula_units_Z   2
loop_
 _symmetry_equiv_pos_site_id
 _symmetry_equiv_pos_as_xyz
  1  'x, y, z'
loop_
 _atom_site_type_symbol
 _atom_site_label
 _atom_site_symmetry_multiplicity
 _atom_site_fract_x
 _atom_site_fract_y
 _atom_site_fract_z
 _atom_site_occupancy
  Rb  Rb0  1  0.14155600  0.62298600  0.37701400  1
  Rb  Rb1  1  0.85844400  0.37701400  0.62298700  1
  Rb  Rb2  1  0.61247200  0.12298300  0.87701600  1
  Rb  Rb3  1  0.38752900  0.87701600  0.12298300  1
  Mn  Mn4  1  0.00000000  0.25000300  0.25000300  1
  Mn  Mn5  1  0.73466800  0.01525800  0.48473000  1
  Mn  Mn6  1  0.26533100  0.48473000  0.01525800  1
  Mn  Mn7  1  0.00000000  0.74999700  0.74999700  1
  Mn  Mn8  1  0.26533200  0.98474200  0.51527100  1
  Mn  Mn9  1  0.73466800  0.51527000  0.98474200  1
  Te  Te10  1  0.09582700  0.98856000  0.72631200  1
  Te  Te11  1  0.90417300  0.01144000  0.27368800  1
  Te  Te12  1  0.90417300  0.72631200  0.98856000  1
  Te  Te13  1  0.64187800  0.77367500  0.51146300  1
  Te  Te14  1  0.09582700  0.27368800  0.01144000  1
  Te  Te15  1  0.35812200  0.22632600  0.48853700  1
  Te  Te16  1  0.35812100  0.51146300  0.77367400  1
  Te  Te17  1  0.64187900  0.48853700  0.22632600  1
loop_
 _atom_site_moment_label
 _atom_site_moment_crystalaxis_x
 _atom_site_moment_crystalaxis_y
 _atom_site_moment_crystalaxis_z
  Mn4  -2.88466160  0.02575269  -4.58226330
  Mn5  -2.87269727  0.02564588  -4.56325806
  Mn6  -2.87269727  0.02564588  -4.56325806
  Mn7  2.88466160  -0.02575269  4.58226330
  Mn8  2.87269727  -0.02564588  4.56325806
  Mn9  2.87269727  -0.02564588  4.56325806
  Te10  -0.00692671  0.00006184  -0.01100303
  Te11  0.00692671  -0.00006184  0.01100303
  Te12  -0.00692671  0.00006184  -0.01100303
  Te13  -0.00692671  0.00006184  -0.01100303
  Te14  0.00692671  -0.00006184  0.01100303
  Te15  0.00692671  -0.00006184  0.01100303
  Te16  -0.00692671  0.00006184  -0.01100303
  Te17  0.00692671  -0.00006184  0.01100303
