# generated using pymatgen
data_VGe2
_symmetry_space_group_name_H-M   'P 1'
_cell_length_a   5.01727019
_cell_length_b   8.56691829
_cell_length_c   8.56333352
_cell_angle_alpha   71.44389503
_cell_angle_beta   107.06395050
_cell_angle_gamma   72.91970992
_symmetry_Int_Tables_number   1
_chemical_formula_structural   VGe2
_chemical_formula_sum   'V6 Ge12'
_cell_volume   301.61853144
_cell_formula_units_Z   6
loop_
 _symmetry_equiv_pos_site_id
 _symmetry_equiv_pos_as_xyz
  1  'x, y, z'
loop_
 _atom_site_type_symbol
 _atom_site_label
 _atom_site_symmetry_multiplicity
 _atom_site_fract_x
 _atom_site_fract_y
 _atom_site_fract_z
 _atom_site_occupancy
  V  V0  1  0.50007200  0.50028700  0.50035300  1
  V  V1  1  0.50055900  0.58321000  0.08274400  1
  V  V2  1  0.49956700  0.08261500  0.58322600  1
  V  V3  1  0.99856800  0.41786400  0.91648500  1
  V  V4  1  0.00130100  0.91655300  0.41760800  1
  V  V5  1  0.49983000  0.99950100  0.99939000  1
  Ge  Ge6  1  0.33187800  0.58536600  0.74945200  1
  Ge  Ge7  1  0.33007800  0.08702300  0.24715400  1
  Ge  Ge8  1  0.83646700  0.16390500  0.83459600  1
  Ge  Ge9  1  0.83474600  0.66549000  0.33649800  1
  Ge  Ge10  1  0.83309100  0.75096000  0.91431000  1
  Ge  Ge11  1  0.83110600  0.25305600  0.41236000  1
  Ge  Ge12  1  0.66981600  0.24712900  0.08712600  1
  Ge  Ge13  1  0.66803100  0.74949200  0.58527600  1
  Ge  Ge14  1  0.16532200  0.33649000  0.66544800  1
  Ge  Ge15  1  0.16365900  0.83449300  0.16391600  1
  Ge  Ge16  1  0.16904300  0.41230100  0.25308900  1
  Ge  Ge17  1  0.16686400  0.91426400  0.75096800  1
loop_
 _atom_site_moment_label
 _atom_site_moment_crystalaxis_x
 _atom_site_moment_crystalaxis_y
 _atom_site_moment_crystalaxis_z
  V0  0.00003454  -1.43731557  -1.43756455
  V1  0.00003654  -1.52045079  -1.52071417
  V2  0.00003657  -1.52168243  -1.52194602
  V3  -0.00003651  1.51921916  1.51948232
  V4  -0.00003649  1.51860335  1.51886640
  V5  -0.00003472  1.44470537  1.44495563
  Ge6  -0.00000038  0.01601123  0.01601400
  Ge7  0.00000046  -0.01909031  -0.01909362
  Ge8  0.00000041  -0.01724286  -0.01724585
  Ge9  -0.00000046  0.01909031  0.01909362
  Ge10  0.00000036  -0.01477959  -0.01478215
  Ge11  -0.00000044  0.01847449  0.01847769
  Ge12  0.00000044  -0.01847449  -0.01847769
  Ge13  -0.00000038  0.01601123  0.01601400
  Ge14  -0.00000046  0.01909031  0.01909362
  Ge15  0.00000041  -0.01724286  -0.01724585
  Ge16  -0.00000043  0.01785868  0.01786177
  Ge17  0.00000036  -0.01477959  -0.01478215
