# generated using pymatgen
data_Rb2MnBi2
_symmetry_space_group_name_H-M   'P 1'
_cell_length_a   6.61570896
_cell_length_b   6.29924734
_cell_length_c   38.59531298
_cell_angle_alpha   38.55131329
_cell_angle_beta   73.28057657
_cell_angle_gamma   85.13114819
_symmetry_Int_Tables_number   1
_chemical_formula_structural   Rb2MnBi2
_chemical_formula_sum   'Rb8 Mn4 Bi8'
_cell_volume   933.19156190
_cell_formula_units_Z   4
loop_
 _symmetry_equiv_pos_site_id
 _symmetry_equiv_pos_as_xyz
  1  'x, y, z'
loop_
 _atom_site_type_symbol
 _atom_site_label
 _atom_site_symmetry_multiplicity
 _atom_site_fract_x
 _atom_site_fract_y
 _atom_site_fract_z
 _atom_site_occupancy
  Rb  Rb0  1  0.52989500  0.95464100  0.84649100  1
  Rb  Rb1  1  0.25410900  0.61297400  0.34065300  1
  Rb  Rb2  1  0.94863100  0.38099000  0.84621300  1
  Rb  Rb3  1  0.81571200  0.21236100  0.33137000  1
  Rb  Rb4  1  0.68264300  0.28639600  0.66919900  1
  Rb  Rb5  1  0.55162400  0.11947300  0.15344000  1
  Rb  Rb6  1  0.24397200  0.88498500  0.65990700  1
  Rb  Rb7  1  0.97121200  0.54490000  0.15398000  1
  Mn  Mn8  1  0.52265800  0.94759800  0.99840400  1
  Mn  Mn9  1  0.24989500  0.74879300  0.50034100  1
  Mn  Mn10  1  0.74990200  0.24640100  0.50050200  1
  Mn  Mn11  1  0.98359900  0.54655700  0.00113000  1
  Bi  Bi12  1  0.85619500  0.20220100  0.57647700  1
  Bi  Bi13  1  0.55282400  0.11672300  0.05651200  1
  Bi  Bi14  1  0.25463800  0.88875600  0.56347900  1
  Bi  Bi15  1  0.15751800  0.34362800  0.08581200  1
  Bi  Bi16  1  0.34078500  0.15977700  0.91395900  1
  Bi  Bi17  1  0.24419200  0.60636400  0.43753300  1
  Bi  Bi18  1  0.94810800  0.39718600  0.94099300  1
  Bi  Bi19  1  0.64188600  0.29929800  0.42360500  1
loop_
 _atom_site_moment_label
 _atom_site_moment_crystalaxis_x
 _atom_site_moment_crystalaxis_y
 _atom_site_moment_crystalaxis_z
  Rb1  0.00030593  0.00089862  -0.00161391
  Rb2  -0.00030593  -0.00089862  0.00161391
  Rb5  0.00030593  0.00089862  -0.00161391
  Rb6  0.00030593  0.00089862  -0.00161391
  Mn8  1.40424108  4.12465948  -7.40785843
  Mn9  1.40699449  4.13274704  -7.42238365
  Mn10  -1.41097164  -4.14442909  7.44336451
  Mn11  -1.40332327  -4.12196362  7.40301670
  Bi12  -0.00305935  -0.00898619  0.01613913
  Bi13  0.00734244  0.02156685  -0.03873390
  Bi14  0.00275341  0.00808757  -0.01452521
  Bi15  -0.00244748  -0.00718895  0.01291130
  Bi16  0.00581276  0.01707375  -0.03066434
  Bi17  0.00244748  0.00718895  -0.01291130
  Bi18  -0.00703650  -0.02066823  0.03711999
  Bi19  -0.00275341  -0.00808757  0.01452521
