# generated using pymatgen
data_RbMnAs
_symmetry_space_group_name_H-M   'P 1'
_cell_length_a   4.50578912
_cell_length_b   4.50842012
_cell_length_c   20.95334800
_cell_angle_alpha   89.99993176
_cell_angle_beta   89.99966788
_cell_angle_gamma   89.97315155
_symmetry_Int_Tables_number   1
_chemical_formula_structural   RbMnAs
_chemical_formula_sum   'Rb4 Mn4 As4'
_cell_volume   425.64606252
_cell_formula_units_Z   4
loop_
 _symmetry_equiv_pos_site_id
 _symmetry_equiv_pos_as_xyz
  1  'x, y, z'
loop_
 _atom_site_type_symbol
 _atom_site_label
 _atom_site_symmetry_multiplicity
 _atom_site_fract_x
 _atom_site_fract_y
 _atom_site_fract_z
 _atom_site_occupancy
  Rb  Rb0  1  0.99999900  0.50000000  0.14245000  1
  Rb  Rb1  1  0.00000000  0.50000100  0.64228100  1
  Rb  Rb2  1  0.50000100  0.00000100  0.35772100  1
  Rb  Rb3  1  0.50000000  0.00000000  0.85754000  1
  Mn  Mn4  1  0.99999600  0.00000400  0.49985400  1
  Mn  Mn5  1  0.50000400  0.49999500  0.00014600  1
  Mn  Mn6  1  0.99999000  0.99999900  0.99985300  1
  Mn  Mn7  1  0.50001000  0.49999900  0.50015200  1
  As  As8  1  0.49999500  0.99999800  0.07179100  1
  As  As9  1  0.49999900  0.00000000  0.57177600  1
  As  As10  1  0.00000300  0.50000100  0.42822900  1
  As  As11  1  0.00000300  0.50000100  0.92820700  1
loop_
 _atom_site_moment_label
 _atom_site_moment_crystalaxis_x
 _atom_site_moment_crystalaxis_y
 _atom_site_moment_crystalaxis_z
  Mn4  0.00001315  0.00000237  -4.51700000
  Mn5  0.00001315  0.00000237  -4.51700000
  Mn6  -0.00001315  -0.00000237  4.51700000
  Mn7  -0.00001315  -0.00000237  4.51700000
