# generated using pymatgen
data_Na2MnP2
_symmetry_space_group_name_H-M   'P 1'
_cell_length_a   3.73510021
_cell_length_b   18.79046412
_cell_length_c   12.31273530
_cell_angle_alpha   44.66232890
_cell_angle_beta   72.53438649
_cell_angle_gamma   101.00651317
_symmetry_Int_Tables_number   1
_chemical_formula_structural   Na2MnP2
_chemical_formula_sum   'Na8 Mn4 P8'
_cell_volume   462.19492759
_cell_formula_units_Z   4
loop_
 _symmetry_equiv_pos_site_id
 _symmetry_equiv_pos_as_xyz
  1  'x, y, z'
loop_
 _atom_site_type_symbol
 _atom_site_label
 _atom_site_symmetry_multiplicity
 _atom_site_fract_x
 _atom_site_fract_y
 _atom_site_fract_z
 _atom_site_occupancy
  Na  Na0  1  0.56696300  0.68230300  0.19268400  1
  Na  Na1  1  0.62966700  0.64221900  0.98794100  1
  Na  Na2  1  0.56693600  0.68242200  0.69256700  1
  Na  Na3  1  0.63029000  0.64224700  0.48790100  1
  Na  Na4  1  0.36992800  0.35770600  0.51213300  1
  Na  Na5  1  0.43337600  0.31763700  0.30736300  1
  Na  Na6  1  0.37029300  0.35781100  0.01202300  1
  Na  Na7  1  0.43272400  0.31765200  0.80735300  1
  Mn  Mn8  1  0.44078600  0.01211300  0.61299700  1
  Mn  Mn9  1  0.55875800  0.98797200  0.38706900  1
  Mn  Mn10  1  0.44036000  0.01196600  0.11309600  1
  Mn  Mn11  1  0.55999200  0.98796700  0.88687300  1
  P  P12  1  0.47104900  0.15575900  0.64485200  1
  P  P13  1  0.36760500  0.15599600  0.33010900  1
  P  P14  1  0.47004200  0.15567100  0.14493000  1
  P  P15  1  0.36735600  0.15593500  0.83025200  1
  P  P16  1  0.63302400  0.84402800  0.16976300  1
  P  P17  1  0.52948600  0.84432000  0.85510500  1
  P  P18  1  0.63203600  0.84404100  0.66986700  1
  P  P19  1  0.52933100  0.84423500  0.35512100  1
loop_
 _atom_site_moment_label
 _atom_site_moment_crystalaxis_x
 _atom_site_moment_crystalaxis_y
 _atom_site_moment_crystalaxis_z
  Na0  -0.00068876  -0.00314505  0.00178570
  Na1  -0.00068876  -0.00314505  0.00178570
  Na2  0.00068876  0.00314505  -0.00178570
  Na3  0.00068876  0.00314505  -0.00178570
  Na4  0.00068876  0.00314505  -0.00178570
  Na5  0.00068876  0.00314505  -0.00178570
  Na6  -0.00068876  -0.00314505  0.00178570
  Na7  -0.00068876  -0.00314505  0.00178570
  Mn8  -1.52662909  -6.97101248  3.95799872
  Mn9  -1.52662909  -6.97101248  3.95799872
  Mn10  1.52662909  6.97101248  -3.95799872
  Mn11  1.52662909  6.97101248  -3.95799872
  P12  -0.03168281  -0.14467249  0.08214209
  P13  0.02617275  0.11951206  -0.06785651
  P14  0.03168281  0.14467249  -0.08214209
  P15  -0.02617275  -0.11951206  0.06785651
  P16  -0.02617275  -0.11951206  0.06785651
  P17  0.03168281  0.14467249  -0.08214209
  P18  0.02617275  0.11951206  -0.06785651
  P19  -0.03168281  -0.14467249  0.08214209
