# generated using pymatgen
data_Ba(MnAs)2
_symmetry_space_group_name_H-M   'P 1'
_cell_length_a   4.31432618
_cell_length_b   4.29806364
_cell_length_c   7.52226720
_cell_angle_alpha   73.33400635
_cell_angle_beta   73.29777671
_cell_angle_gamma   90.01202010
_symmetry_Int_Tables_number   1
_chemical_formula_structural   Ba(MnAs)2
_chemical_formula_sum   'Ba1 Mn2 As2'
_cell_volume   127.47017271
_cell_formula_units_Z   1
loop_
 _symmetry_equiv_pos_site_id
 _symmetry_equiv_pos_as_xyz
  1  'x, y, z'
loop_
 _atom_site_type_symbol
 _atom_site_label
 _atom_site_symmetry_multiplicity
 _atom_site_fract_x
 _atom_site_fract_y
 _atom_site_fract_z
 _atom_site_occupancy
  Ba  Ba0  1  0.00023000  0.00028300  0.99948000  1
  Mn  Mn1  1  0.75070200  0.25046500  0.49887800  1
  Mn  Mn2  1  0.24898700  0.74910200  0.50188600  1
  As  As3  1  0.63493500  0.63479600  0.72913700  1
  As  As4  1  0.36514500  0.36535400  0.27062000  1
loop_
 _atom_site_moment_label
 _atom_site_moment_crystalaxis_x
 _atom_site_moment_crystalaxis_y
 _atom_site_moment_crystalaxis_z
  Mn1  2.55626784  2.55292403  -4.48956396
  Mn2  -2.55626784  -2.55292403  4.48956396
