# generated using pymatgen
data_Co7Ge4
_symmetry_space_group_name_H-M   'P 1'
_cell_length_a   4.00939585
_cell_length_b   3.97967103
_cell_length_c   19.78705816
_cell_angle_alpha   90.19056591
_cell_angle_beta   89.73268193
_cell_angle_gamma   119.46288965
_symmetry_Int_Tables_number   1
_chemical_formula_structural   Co7Ge4
_chemical_formula_sum   'Co14 Ge8'
_cell_volume   274.88947484
_cell_formula_units_Z   2
loop_
 _symmetry_equiv_pos_site_id
 _symmetry_equiv_pos_as_xyz
  1  'x, y, z'
loop_
 _atom_site_type_symbol
 _atom_site_label
 _atom_site_symmetry_multiplicity
 _atom_site_fract_x
 _atom_site_fract_y
 _atom_site_fract_z
 _atom_site_occupancy
  Co  Co0  1  0.66015000  0.33285700  0.76968400  1
  Co  Co1  1  0.66073500  0.33255500  0.27220300  1
  Co  Co2  1  0.99662400  0.99792600  0.44052500  1
  Co  Co3  1  0.99827400  0.99869400  0.94047300  1
  Co  Co4  1  0.00914700  0.00642700  0.05853600  1
  Co  Co5  1  0.00982100  0.00423400  0.55855700  1
  Co  Co6  1  0.99014200  0.99797200  0.18711400  1
  Co  Co7  1  0.99068200  0.99793000  0.68651200  1
  Co  Co8  1  0.00060800  0.99768500  0.31322800  1
  Co  Co9  1  0.00190800  0.99712300  0.81281600  1
  Co  Co10  1  0.33316200  0.66496000  0.36127400  1
  Co  Co11  1  0.33711200  0.66529800  0.86130700  1
  Co  Co12  1  0.33413300  0.66858000  0.11377400  1
  Co  Co13  1  0.33494300  0.66701100  0.61367500  1
  Ge  Ge14  1  0.33662800  0.66780400  0.99403200  1
  Ge  Ge15  1  0.33705100  0.66710900  0.49433100  1
  Ge  Ge16  1  0.32434900  0.66575600  0.23740100  1
  Ge  Ge17  1  0.32484200  0.66609400  0.73748000  1
  Ge  Ge18  1  0.66914500  0.33212200  0.39504900  1
  Ge  Ge19  1  0.67213100  0.33230000  0.89288600  1
  Ge  Ge20  1  0.67234700  0.33739100  0.12909700  1
  Ge  Ge21  1  0.67273000  0.33550700  0.63004700  1
loop_
 _atom_site_moment_label
 _atom_site_moment_crystalaxis_x
 _atom_site_moment_crystalaxis_y
 _atom_site_moment_crystalaxis_z
  Co0  -0.00239050  0.00083154  1.20301044
  Co1  -0.00260113  0.00090481  1.30901136
  Co2  -0.00241037  0.00083845  1.21301053
  Co3  -0.00226531  0.00078799  1.14000990
  Co4  -0.00360462  0.00125387  1.81401575
  Co5  -0.00366622  0.00127530  1.84501602
  Co6  -0.00239447  0.00083292  1.20501046
  Co7  -0.00215006  0.00074790  1.08200939
  Co8  -0.00371988  0.00129397  1.87201625
  Co9  -0.00314957  0.00109558  1.58501376
  Co10  -0.00251767  0.00087578  1.26701100
  Co11  -0.00216993  0.00075481  1.09200948
  Co12  -0.00144463  0.00050252  0.72700631
  Co13  -0.00135919  0.00047280  0.68400594
  Ge14  0.00012916  -0.00004493  -0.06500056
  Ge15  0.00010730  -0.00003733  -0.05400047
  Ge16  0.00009141  -0.00003180  -0.04600040
  Ge17  0.00012519  -0.00004355  -0.06300055
  Ge18  0.00009339  -0.00003249  -0.04700041
  Ge19  0.00014109  -0.00004908  -0.07100062
  Ge20  0.00011724  -0.00004078  -0.05900051
  Ge21  0.00011923  -0.00004147  -0.06000052
