# generated using pymatgen
data_CaMnS2
_symmetry_space_group_name_H-M   'P 1'
_cell_length_a   3.89922354
_cell_length_b   3.89922708
_cell_length_c   12.83876721
_cell_angle_alpha   98.73798495
_cell_angle_beta   81.26182952
_cell_angle_gamma   119.97902934
_symmetry_Int_Tables_number   1
_chemical_formula_structural   CaMnS2
_chemical_formula_sum   'Ca2 Mn2 S4'
_cell_volume   166.46152597
_cell_formula_units_Z   2
loop_
 _symmetry_equiv_pos_site_id
 _symmetry_equiv_pos_as_xyz
  1  'x, y, z'
loop_
 _atom_site_type_symbol
 _atom_site_label
 _atom_site_symmetry_multiplicity
 _atom_site_fract_x
 _atom_site_fract_y
 _atom_site_fract_z
 _atom_site_occupancy
  Ca  Ca0  1  0.00000000  0.00000000  0.00000000  1
  Ca  Ca1  1  0.50000000  0.50000000  0.50000000  1
  Mn  Mn2  1  0.74999800  0.25000100  0.75000200  1
  Mn  Mn3  1  0.25000000  0.74999900  0.24999900  1
  S  S4  1  0.62178300  0.37821600  0.13461400  1
  S  S5  1  0.12178500  0.87821600  0.63461300  1
  S  S6  1  0.87821600  0.12178500  0.36538700  1
  S  S7  1  0.37821700  0.62178300  0.86538500  1
loop_
 _atom_site_moment_label
 _atom_site_moment_crystalaxis_x
 _atom_site_moment_crystalaxis_y
 _atom_site_moment_crystalaxis_z
  Mn2  -1.35312401  -1.34615273  -4.40995182
  Mn3  1.35312401  1.34615273  4.40995182
  S4  0.00850652  0.00846270  0.02772352
  S5  -0.00850652  -0.00846270  -0.02772352
  S6  0.00850652  0.00846270  0.02772352
  S7  -0.00850652  -0.00846270  -0.02772352
