# generated using pymatgen
data_RbV5Se8
_symmetry_space_group_name_H-M   'P 1'
_cell_length_a   3.79388494
_cell_length_b   11.80349298
_cell_length_c   15.12479783
_cell_angle_alpha   87.13967098
_cell_angle_beta   83.01085708
_cell_angle_gamma   80.80595283
_symmetry_Int_Tables_number   1
_chemical_formula_structural   RbV5Se8
_chemical_formula_sum   'Rb2 V10 Se16'
_cell_volume   663.31458953
_cell_formula_units_Z   2
loop_
 _symmetry_equiv_pos_site_id
 _symmetry_equiv_pos_as_xyz
  1  'x, y, z'
loop_
 _atom_site_type_symbol
 _atom_site_label
 _atom_site_symmetry_multiplicity
 _atom_site_fract_x
 _atom_site_fract_y
 _atom_site_fract_z
 _atom_site_occupancy
  Rb  Rb0  1  0.50037600  0.25008600  0.74905600  1
  Rb  Rb1  1  0.49963200  0.74991600  0.25094600  1
  V  V2  1  0.99999300  0.49997900  0.50001100  1
  V  V3  1  0.99999500  0.00000300  0.00000500  1
  V  V4  1  0.65620900  0.35575100  0.33076600  1
  V  V5  1  0.65880700  0.85524800  0.83502500  1
  V  V6  1  0.34372100  0.64422800  0.66924400  1
  V  V7  1  0.34124100  0.14475600  0.16494900  1
  V  V8  1  0.70470700  0.62478200  0.96435600  1
  V  V9  1  0.70516500  0.12471400  0.46362500  1
  V  V10  1  0.29528100  0.37522900  0.03564400  1
  V  V11  1  0.29486800  0.87529500  0.53638900  1
  Se  Se12  1  0.42990400  0.15461200  0.99370500  1
  Se  Se13  1  0.42524100  0.65408100  0.49573400  1
  Se  Se14  1  0.57014300  0.84539300  0.00628300  1
  Se  Se15  1  0.57471500  0.34591800  0.50427100  1
  Se  Se16  1  0.91419500  0.49753300  0.67412800  1
  Se  Se17  1  0.91667500  0.99685900  0.17460200  1
  Se  Se18  1  0.08576600  0.50246300  0.32585600  1
  Se  Se19  1  0.08339000  0.00313900  0.82541800  1
  Se  Se20  1  0.83302500  0.41222800  0.92180000  1
  Se  Se21  1  0.83302700  0.91135100  0.42230200  1
  Se  Se22  1  0.16696600  0.58778000  0.07820300  1
  Se  Se23  1  0.16701000  0.08865400  0.57770400  1
  Se  Se24  1  0.76123500  0.31533700  0.15954300  1
  Se  Se25  1  0.76094700  0.81693000  0.66137700  1
  Se  Se26  1  0.23876000  0.68465900  0.84045700  1
  Se  Se27  1  0.23901000  0.18306900  0.33860400  1
loop_
 _atom_site_moment_label
 _atom_site_moment_crystalaxis_x
 _atom_site_moment_crystalaxis_y
 _atom_site_moment_crystalaxis_z
  Rb0  0.00115443  -0.00181014  -0.00229980
  Rb1  0.00115443  -0.00181014  -0.00229980
  V2  0.75730740  -1.18745251  -1.50867070
  V3  -0.78655301  1.23330942  1.56693237
  V4  -0.78539858  1.23149928  1.56463257
  V5  -0.79925177  1.25322097  1.59223020
  V6  -0.78539858  1.23149928  1.56463257
  V7  -0.79886696  1.25261759  1.59146360
  V8  -0.79848214  1.25201421  1.59069700
  V9  -0.79578847  1.24779054  1.58533079
  V10  -0.79848214  1.25201421  1.59069700
  V11  -0.79578847  1.24779054  1.58533079
  Se12  0.03925069  -0.06154479  -0.07819330
  Se13  0.00500254  -0.00784394  -0.00996581
  Se14  0.03925069  -0.06154479  -0.07819330
  Se15  0.00500254  -0.00784394  -0.00996581
  Se16  0.02039497  -0.03197916  -0.04062985
  Se17  0.04540766  -0.07119888  -0.09045891
  Se18  0.02039497  -0.03197916  -0.04062985
  Se19  0.04540766  -0.07119888  -0.09045891
  Se20  0.04617728  -0.07240564  -0.09199212
  Se21  0.04502285  -0.07059550  -0.08969231
  Se22  0.04617728  -0.07240564  -0.09199212
  Se23  0.04502285  -0.07059550  -0.08969231
  Se24  0.03617220  -0.05671775  -0.07206049
  Se25  0.03886588  -0.06094141  -0.07742670
  Se26  0.03617220  -0.05671775  -0.07206049
  Se27  0.03886588  -0.06094141  -0.07742670
