# generated using pymatgen
data_KV5S8
_symmetry_space_group_name_H-M   'P 1'
_cell_length_a   3.60932076
_cell_length_b   11.14479755
_cell_length_c   14.35207217
_cell_angle_alpha   87.19531014
_cell_angle_beta   82.99673687
_cell_angle_gamma   80.68245354
_symmetry_Int_Tables_number   1
_chemical_formula_structural   KV5S8
_chemical_formula_sum   'K2 V10 S16'
_cell_volume   565.19568445
_cell_formula_units_Z   2
loop_
 _symmetry_equiv_pos_site_id
 _symmetry_equiv_pos_as_xyz
  1  'x, y, z'
loop_
 _atom_site_type_symbol
 _atom_site_label
 _atom_site_symmetry_multiplicity
 _atom_site_fract_x
 _atom_site_fract_y
 _atom_site_fract_z
 _atom_site_occupancy
  K  K0  1  0.50055200  0.24950100  0.74906100  1
  K  K1  1  0.49942900  0.75051800  0.25096300  1
  V  V2  1  0.65518900  0.36209900  0.32694800  1
  V  V3  1  0.66023300  0.86227500  0.82914300  1
  V  V4  1  0.34485700  0.63788700  0.67303500  1
  V  V5  1  0.33981200  0.13773400  0.17089500  1
  V  V6  1  0.70528700  0.62508100  0.96452900  1
  V  V7  1  0.70551000  0.12482800  0.46375700  1
  V  V8  1  0.29470500  0.37492100  0.03547200  1
  V  V9  1  0.29449400  0.87516200  0.53624700  1
  V  V10  1  0.00000400  0.49999200  0.49998100  1
  V  V11  1  0.99997300  0.99999900  0.00000000  1
  S  S12  1  0.42826300  0.15303800  0.99922900  1
  S  S13  1  0.42310000  0.65286900  0.50033000  1
  S  S14  1  0.57169300  0.84696000  0.00079600  1
  S  S15  1  0.57693800  0.34710600  0.49964600  1
  S  S16  1  0.91743100  0.49308600  0.67406200  1
  S  S17  1  0.92037200  0.99233100  0.17443500  1
  S  S18  1  0.08256300  0.50692900  0.32589100  1
  S  S19  1  0.07960100  0.00767800  0.82558100  1
  S  S20  1  0.83195300  0.41116100  0.92304200  1
  S  S21  1  0.83166700  0.91039600  0.42388200  1
  S  S22  1  0.16803800  0.58884400  0.07696800  1
  S  S23  1  0.16835500  0.08958300  0.57610300  1
  S  S24  1  0.76204300  0.31282600  0.15888500  1
  S  S25  1  0.76213200  0.81373600  0.66042400  1
  S  S26  1  0.23797200  0.68717700  0.84111500  1
  S  S27  1  0.23783100  0.18628000  0.33958000  1
loop_
 _atom_site_moment_label
 _atom_site_moment_crystalaxis_x
 _atom_site_moment_crystalaxis_y
 _atom_site_moment_crystalaxis_z
  K0  0.00037926  -0.00060069  -0.00077142
  K1  0.00037926  -0.00060069  -0.00077142
  V2  -0.75396261  1.19418143  1.53359010
  V3  -0.76192700  1.20679603  1.54979000
  V4  -0.75396261  1.19418143  1.53359010
  V5  -0.76192700  1.20679603  1.54979000
  V6  -0.76003072  1.20379255  1.54593288
  V7  -0.75396261  1.19418143  1.53359010
  V8  -0.76003072  1.20379255  1.54593288
  V9  -0.75396261  1.19418143  1.53359010
  V10  0.72400132  -1.14672654  -1.47264764
  V11  -0.74751524  1.18396962  1.52047590
  S12  0.02958203  -0.04685420  -0.06017104
  S13  0.00303405  -0.00480556  -0.00617139
  S14  0.02958203  -0.04685420  -0.06017104
  S15  0.00303405  -0.00480556  -0.00617139
  S16  0.01744581  -0.02763196  -0.03548549
  S17  0.03375386  -0.05346184  -0.06865670
  S18  0.01744581  -0.02763196  -0.03548549
  S19  0.03375386  -0.05346184  -0.06865670
  S20  0.03337460  -0.05286115  -0.06788528
  S21  0.03223683  -0.05105907  -0.06557101
  S22  0.03337460  -0.05286115  -0.06788528
  S23  0.03223683  -0.05105907  -0.06557101
  S24  0.02654798  -0.04204864  -0.05399965
  S25  0.02844426  -0.04505212  -0.05785677
  S26  0.02692724  -0.04264934  -0.05477108
  S27  0.02844426  -0.04505212  -0.05785677
