# generated using pymatgen
data_RbFeS2
_symmetry_space_group_name_H-M   'P 1'
_cell_length_a   5.64064428
_cell_length_b   7.42338838
_cell_length_c   12.36114663
_cell_angle_alpha   95.91427915
_cell_angle_beta   103.18647460
_cell_angle_gamma   67.66492613
_symmetry_Int_Tables_number   1
_chemical_formula_structural   RbFeS2
_chemical_formula_sum   'Rb4 Fe4 S8'
_cell_volume   466.06267043
_cell_formula_units_Z   4
loop_
 _symmetry_equiv_pos_site_id
 _symmetry_equiv_pos_as_xyz
  1  'x, y, z'
loop_
 _atom_site_type_symbol
 _atom_site_label
 _atom_site_symmetry_multiplicity
 _atom_site_fract_x
 _atom_site_fract_y
 _atom_site_fract_z
 _atom_site_occupancy
  Rb  Rb0  1  0.83977000  0.48054200  0.16015900  1
  Rb  Rb1  1  0.33976700  0.98054200  0.66015900  1
  Rb  Rb2  1  0.16023400  0.51945700  0.83984000  1
  Rb  Rb3  1  0.66023200  0.01945700  0.33984100  1
  Fe  Fe4  1  0.74898700  0.50000300  0.49999600  1
  Fe  Fe5  1  0.75101700  0.99999700  0.00000400  1
  Fe  Fe6  1  0.24899000  0.00000300  0.99999700  1
  Fe  Fe7  1  0.25100900  0.49999800  0.50000400  1
  S  S8  1  0.42383700  0.22849400  0.07623800  1
  S  S9  1  0.92384700  0.72849600  0.57623700  1
  S  S10  1  0.57615200  0.77150600  0.92376200  1
  S  S11  1  0.07616500  0.27150400  0.42376300  1
  S  S12  1  0.62766500  0.37200900  0.62731900  1
  S  S13  1  0.12767300  0.87200900  0.12731900  1
  S  S14  1  0.87233400  0.12799400  0.87268200  1
  S  S15  1  0.37232500  0.62799000  0.37268000  1
loop_
 _atom_site_moment_label
 _atom_site_moment_crystalaxis_x
 _atom_site_moment_crystalaxis_y
 _atom_site_moment_crystalaxis_z
  Fe4  1.38308930  -1.87561596  -3.14436979
  Fe5  1.38272116  -1.87511673  -3.14353286
  Fe6  -1.38308930  1.87561596  3.14436979
  Fe7  -1.38308930  1.87561596  3.14436979
