# generated using pymatgen
data_Na(VSe2)2
_symmetry_space_group_name_H-M   'P 1'
_cell_length_a   3.69684017
_cell_length_b   6.22829447
_cell_length_c   7.94989741
_cell_angle_alpha   108.16166831
_cell_angle_beta   89.71935097
_cell_angle_gamma   91.00426493
_symmetry_Int_Tables_number   1
_chemical_formula_structural   Na(VSe2)2
_chemical_formula_sum   'Na1 V2 Se4'
_cell_volume   173.90048483
_cell_formula_units_Z   1
loop_
 _symmetry_equiv_pos_site_id
 _symmetry_equiv_pos_as_xyz
  1  'x, y, z'
loop_
 _atom_site_type_symbol
 _atom_site_label
 _atom_site_symmetry_multiplicity
 _atom_site_fract_x
 _atom_site_fract_y
 _atom_site_fract_z
 _atom_site_occupancy
  Na  Na0  1  0.49890300  0.34419000  0.50029700  1
  V  V1  1  0.00025400  0.00278100  0.99703500  1
  V  V2  1  0.50015100  0.49426300  0.00464200  1
  Se  Se3  1  0.00287100  0.41539400  0.20966600  1
  Se  Se4  1  0.49831800  0.91252900  0.19991800  1
  Se  Se5  1  0.99886500  0.58219200  0.80023800  1
  Se  Se6  1  0.50063800  0.08355100  0.79290300  1
loop_
 _atom_site_moment_label
 _atom_site_moment_crystalaxis_x
 _atom_site_moment_crystalaxis_y
 _atom_site_moment_crystalaxis_z
  V1  -0.00530868  -0.03808923  1.99382170
  V2  -0.00531133  -0.03810822  1.99481563
  Se3  0.00032551  0.00233548  -0.12225327
  Se4  0.00037314  0.00267726  -0.14014400
  Se5  0.00030963  0.00222156  -0.11628970
  Se6  0.00039167  0.00281017  -0.14710150
