# generated using pymatgen
data_Mg6FeSi
_symmetry_space_group_name_H-M   'P 1'
_cell_length_a   7.85033518
_cell_length_b   10.85654122
_cell_length_c   7.84592123
_cell_angle_alpha   89.82858212
_cell_angle_beta   75.85942043
_cell_angle_gamma   89.92115045
_symmetry_Int_Tables_number   1
_chemical_formula_structural   Mg6FeSi
_chemical_formula_sum   'Mg24 Fe4 Si4'
_cell_volume   648.42334389
_cell_formula_units_Z   4
loop_
 _symmetry_equiv_pos_site_id
 _symmetry_equiv_pos_as_xyz
  1  'x, y, z'
loop_
 _atom_site_type_symbol
 _atom_site_label
 _atom_site_symmetry_multiplicity
 _atom_site_fract_x
 _atom_site_fract_y
 _atom_site_fract_z
 _atom_site_occupancy
  Mg  Mg0  1  0.87445000  0.41286700  0.36963800  1
  Mg  Mg1  1  0.11676300  0.91348600  0.62350900  1
  Mg  Mg2  1  0.36966000  0.41285400  0.87436700  1
  Mg  Mg3  1  0.62338700  0.91360800  0.11678400  1
  Mg  Mg4  1  0.48991200  0.16744600  0.99937800  1
  Mg  Mg5  1  0.73890000  0.66740800  0.24497000  1
  Mg  Mg6  1  0.99930500  0.16743800  0.49000400  1
  Mg  Mg7  1  0.24500000  0.66745400  0.73882900  1
  Mg  Mg8  1  0.36153400  0.07277300  0.36172200  1
  Mg  Mg9  1  0.62342400  0.58094500  0.62343900  1
  Mg  Mg10  1  0.88261400  0.08788700  0.88271900  1
  Mg  Mg11  1  0.10845700  0.57380100  0.10836900  1
  Mg  Mg12  1  0.27302800  0.34990400  0.27300100  1
  Mg  Mg13  1  0.49962800  0.83388600  0.49948300  1
  Mg  Mg14  1  0.73407600  0.31752800  0.73405400  1
  Mg  Mg15  1  0.00870300  0.83671400  0.00873000  1
  Mg  Mg16  1  0.73272200  0.16883400  0.26653800  1
  Mg  Mg17  1  0.00202900  0.66834300  0.48776800  1
  Mg  Mg18  1  0.26625600  0.16887100  0.73295300  1
  Mg  Mg19  1  0.48777600  0.66840200  0.00208500  1
  Mg  Mg20  1  0.66032800  0.42322700  0.10050700  1
  Mg  Mg21  1  0.88289000  0.91965600  0.37229600  1
  Mg  Mg22  1  0.10070000  0.42318400  0.66026100  1
  Mg  Mg23  1  0.37245500  0.91962100  0.88270100  1
  Fe  Fe24  1  0.50260300  0.33489300  0.50228200  1
  Fe  Fe25  1  0.75137800  0.84337600  0.75138000  1
  Fe  Fe26  1  0.03042500  0.29868300  0.03032100  1
  Fe  Fe27  1  0.25994800  0.81357600  0.25982300  1
  Si  Si28  1  0.12215900  0.09124500  0.12235800  1
  Si  Si29  1  0.37528100  0.58905600  0.37556300  1
  Si  Si30  1  0.64401900  0.05932100  0.64373900  1
  Si  Si31  1  0.86020100  0.63372000  0.86044000  1
loop_
 _atom_site_moment_label
 _atom_site_moment_crystalaxis_x
 _atom_site_moment_crystalaxis_y
 _atom_site_moment_crystalaxis_z
  Mg1  -0.00031529  -0.00086652  -0.00031448
  Mg3  -0.00031529  -0.00086652  -0.00031448
  Mg4  -0.00094588  -0.00259957  -0.00094345
  Mg5  0.00031529  0.00086652  0.00031448
  Mg6  -0.00094588  -0.00259957  -0.00094345
  Mg7  0.00031529  0.00086652  0.00031448
  Mg8  -0.00031529  -0.00086652  -0.00031448
  Mg9  0.00157647  0.00433261  0.00157241
  Mg10  -0.00126118  -0.00346609  -0.00125793
  Mg11  -0.00094588  -0.00259957  -0.00094345
  Mg12  0.00094588  0.00259957  0.00094345
  Mg13  -0.00063059  -0.00173304  -0.00062896
  Mg14  0.00063059  0.00173304  0.00062896
  Mg15  -0.00126118  -0.00346609  -0.00125793
  Mg17  -0.00126118  -0.00346609  -0.00125793
  Mg19  -0.00126118  -0.00346609  -0.00125793
  Mg20  -0.00031529  -0.00086652  -0.00031448
  Mg22  -0.00031529  -0.00086652  -0.00031448
  Fe24  -0.93989273  -2.58310289  -0.93747039
  Fe25  -0.99412337  -2.73214472  -0.99156127
  Fe26  0.95471157  2.62382943  0.95225104
  Fe27  0.94336097  2.59263463  0.94092969
  Si28  -0.00126118  -0.00346609  -0.00125793
  Si29  0.00031529  0.00086652  0.00031448
  Si30  0.00063059  0.00173304  0.00062896
  Si31  0.00283765  0.00779870  0.00283034
