# generated using pymatgen
data_Be4AlCr
_symmetry_space_group_name_H-M   'P 1'
_cell_length_a   4.42719483
_cell_length_b   14.49060501
_cell_length_c   4.42680200
_cell_angle_alpha   90.00291761
_cell_angle_beta   119.99786949
_cell_angle_gamma   90.00126538
_symmetry_Int_Tables_number   1
_chemical_formula_structural   Be4AlCr
_chemical_formula_sum   'Be16 Al4 Cr4'
_cell_volume   245.94908131
_cell_formula_units_Z   4
loop_
 _symmetry_equiv_pos_site_id
 _symmetry_equiv_pos_as_xyz
  1  'x, y, z'
loop_
 _atom_site_type_symbol
 _atom_site_label
 _atom_site_symmetry_multiplicity
 _atom_site_fract_x
 _atom_site_fract_y
 _atom_site_fract_z
 _atom_site_occupancy
  Be  Be0  1  0.00000000  0.24996000  0.00000100  1
  Be  Be1  1  0.00000100  0.75004100  0.00000100  1
  Be  Be2  1  0.00000100  0.00000100  0.99999800  1
  Be  Be3  1  0.00000000  0.49999100  0.00000300  1
  Be  Be4  1  0.16521900  0.37481000  0.33044400  1
  Be  Be5  1  0.16520900  0.87490500  0.33042300  1
  Be  Be6  1  0.66957500  0.37479800  0.83477000  1
  Be  Be7  1  0.66959300  0.87489500  0.83477500  1
  Be  Be8  1  0.16520100  0.37480500  0.83474800  1
  Be  Be9  1  0.16518800  0.87490100  0.83475700  1
  Be  Be10  1  0.83478300  0.12510700  0.66955200  1
  Be  Be11  1  0.83478800  0.62517700  0.66956400  1
  Be  Be12  1  0.33043400  0.12511800  0.16523700  1
  Be  Be13  1  0.33042700  0.62518900  0.16523800  1
  Be  Be14  1  0.83480000  0.12511200  0.16525500  1
  Be  Be15  1  0.83480600  0.62518300  0.16525600  1
  Al  Al16  1  0.66667200  0.28481300  0.33333800  1
  Al  Al17  1  0.66667000  0.78486300  0.33333800  1
  Al  Al18  1  0.33333100  0.21514800  0.66666300  1
  Al  Al19  1  0.33333000  0.71518800  0.66666300  1
  Cr  Cr20  1  0.33330000  0.53021000  0.66660100  1
  Cr  Cr21  1  0.66668400  0.96993300  0.33337500  1
  Cr  Cr22  1  0.33329900  0.03010400  0.66661100  1
  Cr  Cr23  1  0.66668900  0.46975000  0.33338900  1
loop_
 _atom_site_moment_label
 _atom_site_moment_crystalaxis_x
 _atom_site_moment_crystalaxis_y
 _atom_site_moment_crystalaxis_z
  Be0  0.00000063  0.02000000  0.00000082
  Be1  -0.00000063  -0.02000000  -0.00000082
  Be4  -0.00000066  -0.02100000  -0.00000086
  Be5  0.00000066  0.02100000  0.00000086
  Be6  -0.00000063  -0.02000000  -0.00000082
  Be7  0.00000066  0.02100000  0.00000086
  Be8  -0.00000066  -0.02100000  -0.00000086
  Be9  0.00000066  0.02100000  0.00000086
  Be10  -0.00000063  -0.02000000  -0.00000082
  Be11  0.00000066  0.02100000  0.00000086
  Be12  -0.00000063  -0.02000000  -0.00000082
  Be13  0.00000063  0.02000000  0.00000082
  Be14  -0.00000066  -0.02100000  -0.00000086
  Be15  0.00000066  0.02100000  0.00000086
  Al16  -0.00000066  -0.02100000  -0.00000086
  Al17  0.00000063  0.02000000  0.00000082
  Al18  -0.00000063  -0.02000000  -0.00000082
  Al19  0.00000063  0.02000000  0.00000082
  Cr20  -0.00010663  -3.40500001  -0.00013978
  Cr21  -0.00010660  -3.40400001  -0.00013974
  Cr22  0.00010663  3.40500001  0.00013978
  Cr23  0.00010673  3.40800001  0.00013991
