# generated using pymatgen
data_BaFe2Se3
_symmetry_space_group_name_H-M   'P 1'
_cell_length_a   5.61501328
_cell_length_b   7.93386503
_cell_length_c   7.95515726
_cell_angle_alpha   106.34557849
_cell_angle_beta   89.75931569
_cell_angle_gamma   90.00145888
_symmetry_Int_Tables_number   1
_chemical_formula_structural   BaFe2Se3
_chemical_formula_sum   'Ba2 Fe4 Se6'
_cell_volume   340.06519371
_cell_formula_units_Z   2
loop_
 _symmetry_equiv_pos_site_id
 _symmetry_equiv_pos_as_xyz
  1  'x, y, z'
loop_
 _atom_site_type_symbol
 _atom_site_label
 _atom_site_symmetry_multiplicity
 _atom_site_fract_x
 _atom_site_fract_y
 _atom_site_fract_z
 _atom_site_occupancy
  Ba  Ba0  1  0.24589800  0.28327500  0.71625300  1
  Ba  Ba1  1  0.75432700  0.71670800  0.28373600  1
  Fe  Fe2  1  0.50051200  0.82304000  0.82286200  1
  Fe  Fe3  1  0.49936800  0.17706900  0.17730700  1
  Fe  Fe4  1  0.00094500  0.82699600  0.82745700  1
  Fe  Fe5  1  0.99901900  0.17267000  0.17225800  1
  Se  Se6  1  0.25065100  0.88912000  0.11105200  1
  Se  Se7  1  0.74915400  0.11076200  0.88901800  1
  Se  Se8  1  0.25018500  0.83750000  0.57258500  1
  Se  Se9  1  0.75228700  0.57248300  0.83816700  1
  Se  Se10  1  0.74997200  0.16280500  0.42763600  1
  Se  Se11  1  0.24768400  0.42757100  0.16166800  1
loop_
 _atom_site_moment_label
 _atom_site_moment_crystalaxis_x
 _atom_site_moment_crystalaxis_y
 _atom_site_moment_crystalaxis_z
  Ba0  0.00000180  -0.00000571  -0.00100160
  Ba1  0.00000180  -0.00000571  -0.00100160
  Fe2  0.00635263  -0.02016725  -3.53664365
  Fe3  0.00635263  -0.02016725  -3.53664365
  Fe4  -0.00635083  0.02016154  3.53564206
  Fe5  -0.00635263  0.02016725  3.53664365
