# generated using pymatgen
data_Mg(MnSn)6
_symmetry_space_group_name_H-M   'P 1'
_cell_length_a   5.90457051
_cell_length_b   9.78428300
_cell_length_c   5.90407096
_cell_angle_alpha   90.00025413
_cell_angle_beta   119.07079784
_cell_angle_gamma   89.99968953
_symmetry_Int_Tables_number   1
_chemical_formula_structural   Mg(MnSn)6
_chemical_formula_sum   'Mg1 Mn6 Sn6'
_cell_volume   298.11940725
_cell_formula_units_Z   1
loop_
 _symmetry_equiv_pos_site_id
 _symmetry_equiv_pos_as_xyz
  1  'x, y, z'
loop_
 _atom_site_type_symbol
 _atom_site_label
 _atom_site_symmetry_multiplicity
 _atom_site_fract_x
 _atom_site_fract_y
 _atom_site_fract_z
 _atom_site_occupancy
  Mg  Mg0  1  0.99999900  0.99999300  0.00000000  1
  Mn  Mn1  1  0.50000300  0.24939500  0.00000100  1
  Mn  Mn2  1  0.99999700  0.24938000  0.50000100  1
  Mn  Mn3  1  0.50000000  0.75037600  0.49999800  1
  Mn  Mn4  1  0.50000000  0.75060700  0.99999900  1
  Mn  Mn5  1  0.00000000  0.75062800  0.50000000  1
  Mn  Mn6  1  0.49999900  0.24962500  0.49999900  1
  Sn  Sn7  1  0.00000000  0.67577600  0.00000000  1
  Sn  Sn8  1  0.00000000  0.32422300  0.00000000  1
  Sn  Sn9  1  0.66479300  0.99999300  0.33516800  1
  Sn  Sn10  1  0.33520800  0.99999400  0.66483300  1
  Sn  Sn11  1  0.66215700  0.50000500  0.33787300  1
  Sn  Sn12  1  0.33784400  0.50000500  0.66212800  1
loop_
 _atom_site_moment_label
 _atom_site_moment_crystalaxis_x
 _atom_site_moment_crystalaxis_y
 _atom_site_moment_crystalaxis_z
  Mn1  0.00000943  -4.43500000  -0.00000533
  Mn2  0.00000942  -4.43400000  -0.00000532
  Mn3  0.00000940  -4.42000000  -0.00000531
  Mn4  -0.00000943  4.43500000  0.00000533
  Mn5  -0.00000942  4.43400000  0.00000532
  Mn6  -0.00000940  4.42000000  0.00000531
  Sn7  0.00000006  -0.02700000  -0.00000003
  Sn8  -0.00000006  0.02700000  0.00000003
  Sn9  0.00000000  0.00100000  0.00000000
  Sn10  0.00000000  -0.00100000  0.00000000
  Sn11  0.00000000  -0.00100000  0.00000000
  Sn12  0.00000000  0.00100000  0.00000000
