# generated using pymatgen
data_V3Te4
_symmetry_space_group_name_H-M   'P 1'
_cell_length_a   4.24142410
_cell_length_b   7.06996847
_cell_length_c   12.25845645
_cell_angle_alpha   91.35333625
_cell_angle_beta   90.00412841
_cell_angle_gamma   89.98411499
_symmetry_Int_Tables_number   1
_chemical_formula_structural   V3Te4
_chemical_formula_sum   'V6 Te8'
_cell_volume   367.48852889
_cell_formula_units_Z   2
loop_
 _symmetry_equiv_pos_site_id
 _symmetry_equiv_pos_as_xyz
  1  'x, y, z'
loop_
 _atom_site_type_symbol
 _atom_site_label
 _atom_site_symmetry_multiplicity
 _atom_site_fract_x
 _atom_site_fract_y
 _atom_site_fract_z
 _atom_site_occupancy
  V  V0  1  0.99999600  0.99996700  0.00004000  1
  V  V1  1  0.50020200  0.48060300  0.76106700  1
  V  V2  1  0.49979700  0.51942700  0.23890500  1
  V  V3  1  0.50000100  0.50002000  0.49998300  1
  V  V4  1  0.00023100  0.98062700  0.26117100  1
  V  V5  1  0.99977600  0.01935500  0.73883900  1
  Te  Te6  1  0.00005000  0.65518000  0.63159100  1
  Te  Te7  1  0.50007700  0.15521600  0.13160300  1
  Te  Te8  1  0.99993000  0.34479700  0.36836900  1
  Te  Te9  1  0.49993100  0.84481500  0.86843300  1
  Te  Te10  1  0.99977400  0.64847000  0.10935100  1
  Te  Te11  1  0.49972900  0.14854500  0.60936100  1
  Te  Te12  1  0.00023500  0.35143500  0.89067300  1
  Te  Te13  1  0.50027100  0.85154400  0.39061300  1
loop_
 _atom_site_moment_label
 _atom_site_moment_crystalaxis_x
 _atom_site_moment_crystalaxis_y
 _atom_site_moment_crystalaxis_z
  V0  0.00037494  -2.58069999  0.01160224
  V1  0.00038235  -2.63169406  0.01183150
  V2  0.00038235  -2.63169406  0.01183150
  V3  -0.00037494  2.58069999  -0.01160224
  V4  -0.00038235  2.63169406  -0.01183150
  V5  -0.00038235  2.63169406  -0.01183150
  Te6  0.00000784  -0.05399372  0.00024274
  Te7  -0.00000799  0.05499361  -0.00024724
  Te8  0.00000784  -0.05399372  0.00024274
  Te9  -0.00000799  0.05499361  -0.00024724
  Te10  -0.00002077  0.14298338  -0.00064282
  Te11  0.00002077  -0.14298338  0.00064282
  Te12  -0.00002077  0.14298338  -0.00064282
  Te13  0.00002077  -0.14298338  0.00064282
