# generated using pymatgen
data_Li3(VS2)4
_symmetry_space_group_name_H-M   'P 1'
_cell_length_a   7.13532903
_cell_length_b   7.05894023
_cell_length_c   7.71741894
_cell_angle_alpha   116.66188218
_cell_angle_beta   89.71976690
_cell_angle_gamma   59.60011099
_symmetry_Int_Tables_number   1
_chemical_formula_structural   Li3(VS2)4
_chemical_formula_sum   'Li3 V4 S8'
_cell_volume   285.73024262
_cell_formula_units_Z   1
loop_
 _symmetry_equiv_pos_site_id
 _symmetry_equiv_pos_as_xyz
  1  'x, y, z'
loop_
 _atom_site_type_symbol
 _atom_site_label
 _atom_site_symmetry_multiplicity
 _atom_site_fract_x
 _atom_site_fract_y
 _atom_site_fract_z
 _atom_site_occupancy
  Li  Li0  1  0.35357600  0.29554900  0.42859800  1
  Li  Li1  1  0.86018000  0.78305700  0.42980900  1
  Li  Li2  1  0.35652800  0.78410000  0.42980900  1
  V  V3  1  0.99235900  0.00911100  0.00506200  1
  V  V4  1  0.51930200  0.95691400  0.97703600  1
  V  V5  1  0.00299100  0.49755500  0.99004800  1
  V  V6  1  0.50154500  0.50359800  0.98906200  1
  S  S7  1  0.26584200  0.47076700  0.20736800  1
  S  S8  1  0.75635000  0.48493900  0.21168800  1
  S  S9  1  0.23432700  0.53462500  0.78877700  1
  S  S10  1  0.74138000  0.52594600  0.76743000  1
  S  S11  1  0.23628400  0.02827700  0.79284900  1
  S  S12  1  0.72974900  0.03313600  0.79382600  1
  S  S13  1  0.75207600  0.97680300  0.21036000  1
  S  S14  1  0.26496600  0.98070700  0.21152800  1
loop_
 _atom_site_moment_label
 _atom_site_moment_crystalaxis_x
 _atom_site_moment_crystalaxis_y
 _atom_site_moment_crystalaxis_z
  Li1  -0.00001927  0.00003272  0.00101448
  V3  -0.03765144  0.06392709  1.98229786
  V4  -0.02466420  0.04187650  1.29853698
  V5  0.03693849  -0.06271660  -1.94476202
  V6  -0.03709264  0.06297833  1.95287788
  S7  0.00057807  -0.00098148  -0.03043446
  S8  0.00052026  -0.00088333  -0.02739101
  S9  0.00052026  -0.00088333  -0.02739101
  S10  0.00183055  -0.00310802  -0.09637579
  S11  0.00044318  -0.00075247  -0.02333309
  S12  0.00138736  -0.00235555  -0.07304271
  S13  0.00061660  -0.00104691  -0.03246342
  S14  0.00125248  -0.00212654  -0.06594133
