# generated using pymatgen
data_BaCoS2
_symmetry_space_group_name_H-M   'P 1'
_cell_length_a   6.52938939
_cell_length_b   6.79049429
_cell_length_c   9.90055572
_cell_angle_alpha   76.18549025
_cell_angle_beta   70.75528738
_cell_angle_gamma   90.00557045
_symmetry_Int_Tables_number   1
_chemical_formula_structural   BaCoS2
_chemical_formula_sum   'Ba4 Co4 S8'
_cell_volume   400.96144970
_cell_formula_units_Z   4
loop_
 _symmetry_equiv_pos_site_id
 _symmetry_equiv_pos_as_xyz
  1  'x, y, z'
loop_
 _atom_site_type_symbol
 _atom_site_label
 _atom_site_symmetry_multiplicity
 _atom_site_fract_x
 _atom_site_fract_y
 _atom_site_fract_z
 _atom_site_occupancy
  Ba  Ba0  1  0.14700600  0.17955000  0.19815000  1
  Ba  Ba1  1  0.65477400  0.67951500  0.19810400  1
  Ba  Ba2  1  0.34522900  0.82048900  0.80188100  1
  Ba  Ba3  1  0.85298900  0.32042700  0.80186900  1
  Co  Co4  1  0.90534500  0.88610400  0.60112800  1
  Co  Co5  1  0.50650500  0.11389100  0.39884800  1
  Co  Co6  1  0.49350900  0.38612500  0.60114500  1
  Co  Co7  1  0.09464700  0.61389900  0.39887100  1
  S  S8  1  0.67717500  0.18565400  0.15080200  1
  S  S9  1  0.17196700  0.68572900  0.15083400  1
  S  S10  1  0.82802600  0.81426800  0.84917000  1
  S  S11  1  0.32282500  0.31434500  0.84919200  1
  S  S12  1  0.25617700  0.84087500  0.47955300  1
  S  S13  1  0.73565900  0.15911300  0.52053200  1
  S  S14  1  0.26435000  0.34088900  0.47946800  1
  S  S15  1  0.74381500  0.65913000  0.52045200  1
loop_
 _atom_site_moment_label
 _atom_site_moment_crystalaxis_x
 _atom_site_moment_crystalaxis_y
 _atom_site_moment_crystalaxis_z
  Ba0  -0.00288304  -0.00253423  0.00874471
  Ba1  0.00288304  0.00253423  -0.00874471
  Ba2  -0.00288304  -0.00253423  0.00874471
  Ba3  0.00288304  0.00253423  -0.00874471
  Co4  0.78490860  0.68994378  -2.38074648
  Co5  0.78418784  0.68931022  -2.37856030
  Co6  -0.78418784  -0.68931022  2.37856030
  Co7  -0.78490860  -0.68994378  2.38074648
  S8  0.02270397  0.01995705  -0.06886457
  S9  -0.02234359  -0.01964027  0.06777148
  S10  0.02234359  0.01964027  -0.06777148
  S11  -0.02270397  -0.01995705  0.06886457
  S12  0.01369446  0.01203759  -0.04153736
  S13  0.01369446  0.01203759  -0.04153736
  S14  -0.01369446  -0.01203759  0.04153736
  S15  -0.01369446  -0.01203759  0.04153736
