# generated using pymatgen
data_MgAlNi2
_symmetry_space_group_name_H-M   'P 1'
_cell_length_a   9.60599732
_cell_length_b   8.83697788
_cell_length_c   8.76203034
_cell_angle_alpha   53.30079742
_cell_angle_beta   56.68716527
_cell_angle_gamma   57.04681255
_symmetry_Int_Tables_number   1
_chemical_formula_structural   MgAlNi2
_chemical_formula_sum   'Mg1 Al1 Ni2'
_cell_volume   471.82888297
_cell_formula_units_Z   1
loop_
 _symmetry_equiv_pos_site_id
 _symmetry_equiv_pos_as_xyz
  1  'x, y, z'
loop_
 _atom_site_type_symbol
 _atom_site_label
 _atom_site_symmetry_multiplicity
 _atom_site_fract_x
 _atom_site_fract_y
 _atom_site_fract_z
 _atom_site_occupancy
  Mg  Mg0  1  0.99298400  0.99998000  0.00037500  1
  Al  Al1  1  0.51143500  0.00019400  0.99949200  1
  Ni  Ni2  1  0.26329000  0.99981600  0.00018300  1
  Ni  Ni3  1  0.73229200  0.00000900  0.99995000  1
loop_
 _atom_site_moment_label
 _atom_site_moment_crystalaxis_x
 _atom_site_moment_crystalaxis_y
 _atom_site_moment_crystalaxis_z
  Mg0  -0.00023965  -0.00009455  0.00217416
  Al1  0.00131806  0.00052001  -0.01195790
  Ni2  0.11670823  0.04604467  -1.05881749
  Ni3  -0.01437884  -0.00567285  0.13044979
