# generated using pymatgen
data_Rb2MnSb2
_symmetry_space_group_name_H-M   'P 1'
_cell_length_a   6.42806169
_cell_length_b   14.17439776
_cell_length_c   18.42974545
_cell_angle_alpha   108.56860439
_cell_angle_beta   36.27592823
_cell_angle_gamma   90.96251358
_symmetry_Int_Tables_number   1
_chemical_formula_structural   Rb2MnSb2
_chemical_formula_sum   'Rb8 Mn4 Sb8'
_cell_volume   851.30519117
_cell_formula_units_Z   4
loop_
 _symmetry_equiv_pos_site_id
 _symmetry_equiv_pos_as_xyz
  1  'x, y, z'
loop_
 _atom_site_type_symbol
 _atom_site_label
 _atom_site_symmetry_multiplicity
 _atom_site_fract_x
 _atom_site_fract_y
 _atom_site_fract_z
 _atom_site_occupancy
  Rb  Rb0  1  0.76398300  0.79061400  0.81156300  1
  Rb  Rb1  1  0.71565400  0.32176400  0.60331600  1
  Rb  Rb2  1  0.76609200  0.29136700  0.81390300  1
  Rb  Rb3  1  0.71064600  0.82105900  0.60301500  1
  Rb  Rb4  1  0.72755100  0.45996500  0.18895700  1
  Rb  Rb5  1  0.78554000  0.42805400  0.39612300  1
  Rb  Rb6  1  0.72997400  0.96060600  0.19095000  1
  Rb  Rb7  1  0.79008700  0.92867400  0.39644200  1
  Mn  Mn8  1  0.55716100  0.62375900  0.97896700  1
  Mn  Mn9  1  0.94448400  0.12589300  0.02039500  1
  Mn  Mn10  1  0.56258300  0.12190000  0.97641500  1
  Mn  Mn11  1  0.93931400  0.62753300  0.02283400  1
  Sb  Sb12  1  0.20729200  0.61256000  0.20936900  1
  Sb  Sb13  1  0.72564800  0.22806600  0.24299100  1
  Sb  Sb14  1  0.21268800  0.11171100  0.20721900  1
  Sb  Sb15  1  0.72083500  0.72909800  0.24550700  1
  Sb  Sb16  1  0.28881500  0.63791500  0.79211800  1
  Sb  Sb17  1  0.77636200  0.52182500  0.75627500  1
  Sb  Sb18  1  0.29428500  0.13693100  0.78988000  1
  Sb  Sb19  1  0.78100400  0.02071000  0.75376000  1
loop_
 _atom_site_moment_label
 _atom_site_moment_crystalaxis_x
 _atom_site_moment_crystalaxis_y
 _atom_site_moment_crystalaxis_z
  Rb0  0.00126293  -0.00053830  -0.00190192
  Rb2  -0.00126293  0.00053830  0.00190192
  Rb4  -0.00126293  0.00053830  0.00190192
  Rb6  0.00126293  -0.00053830  -0.00190192
  Mn8  5.67688063  -2.41967826  -8.54914120
  Mn9  5.67688063  -2.41967826  -8.54914120
  Mn10  -5.67814356  2.42021656  8.55104313
  Mn11  -5.67814356  2.42021656  8.55104313
  Sb12  0.01136639  -0.00484474  -0.01711730
  Sb13  -0.01262932  0.00538304  0.01901922
  Sb14  -0.01136639  0.00484474  0.01711730
  Sb15  0.01262932  -0.00538304  -0.01901922
  Sb16  -0.01136639  0.00484474  0.01711730
  Sb17  -0.01262932  0.00538304  0.01901922
  Sb18  0.01136639  -0.00484474  -0.01711730
  Sb19  0.01262932  -0.00538304  -0.01901922
