# generated using pymatgen
data_CsMnSe2
_symmetry_space_group_name_H-M   'P 1'
_cell_length_a   4.09569701
_cell_length_b   13.12206698
_cell_length_c   10.18449919
_cell_angle_alpha   88.63109465
_cell_angle_beta   101.61855544
_cell_angle_gamma   98.73272273
_symmetry_Int_Tables_number   1
_chemical_formula_structural   CsMnSe2
_chemical_formula_sum   'Cs4 Mn4 Se8'
_cell_volume   529.91261581
_cell_formula_units_Z   4
loop_
 _symmetry_equiv_pos_site_id
 _symmetry_equiv_pos_as_xyz
  1  'x, y, z'
loop_
 _atom_site_type_symbol
 _atom_site_label
 _atom_site_symmetry_multiplicity
 _atom_site_fract_x
 _atom_site_fract_y
 _atom_site_fract_z
 _atom_site_occupancy
  Cs  Cs0  1  0.01091700  0.00615200  0.01697300  1
  Cs  Cs1  1  0.99524900  0.24736300  0.74206900  1
  Cs  Cs2  1  0.01082200  0.50618000  0.51687000  1
  Cs  Cs3  1  0.99500700  0.74712300  0.24166500  1
  Mn  Mn4  1  0.75060300  0.69219800  0.80347300  1
  Mn  Mn5  1  0.74675600  0.93122600  0.56863800  1
  Mn  Mn6  1  0.75013600  0.19217200  0.30393300  1
  Mn  Mn7  1  0.74685200  0.43112300  0.06854100  1
  Se  Se8  1  0.34768200  0.28517900  0.40860700  1
  Se  Se9  1  0.34492900  0.48560300  0.21123900  1
  Se  Se10  1  0.34812400  0.78516900  0.90818900  1
  Se  Se11  1  0.34483500  0.98569500  0.71135100  1
  Se  Se12  1  0.64141000  0.23375300  0.05021600  1
  Se  Se13  1  0.66276900  0.49364600  0.82416800  1
  Se  Se14  1  0.64128100  0.73383200  0.54979800  1
  Se  Se15  1  0.66262900  0.99358500  0.32427000  1
loop_
 _atom_site_moment_label
 _atom_site_moment_crystalaxis_x
 _atom_site_moment_crystalaxis_y
 _atom_site_moment_crystalaxis_z
  Cs0  0.00002718  -0.00036344  -0.00091556
  Cs2  -0.00002718  0.00036344  0.00091556
  Mn4  0.12321895  -1.64784446  -4.15115254
  Mn5  0.12300153  -1.64493693  -4.14382805
  Mn6  -0.12321895  1.64784446  4.15115254
  Mn7  -0.12297436  1.64457349  4.14291249
  Se8  0.00760946  -0.10176366  -0.25635702
  Se9  0.00790841  -0.10576152  -0.26642818
  Se10  -0.00760946  0.10176366  0.25635702
  Se11  -0.00788123  0.10539808  0.26551262
  Se12  0.00570710  -0.07632275  -0.19226776
  Se13  0.00035330  -0.00472474  -0.01190229
  Se14  -0.00570710  0.07632275  0.19226776
  Se15  -0.00032612  0.00436130  0.01098673
