# generated using pymatgen
data_V3Ge
_symmetry_space_group_name_H-M   'P 1'
_cell_length_a   5.05559972
_cell_length_b   5.05511471
_cell_length_c   5.05302759
_cell_angle_alpha   89.84211937
_cell_angle_beta   90.17382293
_cell_angle_gamma   90.15991297
_symmetry_Int_Tables_number   1
_chemical_formula_structural   V3Ge
_chemical_formula_sum   'V6 Ge2'
_cell_volume   129.13680500
_cell_formula_units_Z   2
loop_
 _symmetry_equiv_pos_site_id
 _symmetry_equiv_pos_as_xyz
  1  'x, y, z'
loop_
 _atom_site_type_symbol
 _atom_site_label
 _atom_site_symmetry_multiplicity
 _atom_site_fract_x
 _atom_site_fract_y
 _atom_site_fract_z
 _atom_site_occupancy
  V  V0  1  0.49723400  0.24982300  0.99694500  1
  V  V1  1  0.74980600  0.99713200  0.50297800  1
  V  V2  1  0.00302000  0.50303100  0.25003500  1
  V  V3  1  0.50276900  0.75019800  0.00305400  1
  V  V4  1  0.25017900  0.00287300  0.49701400  1
  V  V5  1  0.99699800  0.49695400  0.74996700  1
  Ge  Ge6  1  0.49998500  0.50000700  0.50001700  1
  Ge  Ge7  1  0.00001000  0.99998200  0.99998800  1
loop_
 _atom_site_moment_label
 _atom_site_moment_crystalaxis_x
 _atom_site_moment_crystalaxis_y
 _atom_site_moment_crystalaxis_z
  V0  -0.00325811  -2.33901346  0.00321640
  V1  -0.00325950  -2.34001347  0.00321778
  V2  -0.00324418  -2.32901340  0.00320265
  V3  0.00325950  2.34001347  -0.00321778
  V4  0.00325950  2.34001347  -0.00321778
  V5  0.00324418  2.32901340  -0.00320265
