# generated using pymatgen
data_BaCrS2
_symmetry_space_group_name_H-M   'P 1'
_cell_length_a   4.67824901
_cell_length_b   4.66895802
_cell_length_c   18.57799903
_cell_angle_alpha   90.00677641
_cell_angle_beta   90.00068814
_cell_angle_gamma   90.00685300
_symmetry_Int_Tables_number   1
_chemical_formula_structural   BaCrS2
_chemical_formula_sum   'Ba4 Cr4 S8'
_cell_volume   405.79083377
_cell_formula_units_Z   4
loop_
 _symmetry_equiv_pos_site_id
 _symmetry_equiv_pos_as_xyz
  1  'x, y, z'
loop_
 _atom_site_type_symbol
 _atom_site_label
 _atom_site_symmetry_multiplicity
 _atom_site_fract_x
 _atom_site_fract_y
 _atom_site_fract_z
 _atom_site_occupancy
  Ba  Ba0  1  0.50000100  0.00000200  0.34219600  1
  Ba  Ba1  1  0.49999400  0.00001100  0.84219000  1
  Ba  Ba2  1  0.00000000  0.50000000  0.15780500  1
  Ba  Ba3  1  0.99999800  0.50000600  0.65781000  1
  Cr  Cr4  1  0.99995100  0.49992400  0.95871100  1
  Cr  Cr5  1  0.49994600  0.00003700  0.54129000  1
  Cr  Cr6  1  0.00002700  0.49996000  0.45872300  1
  Cr  Cr7  1  0.50009500  0.99996400  0.04127500  1
  S  S8  1  0.99999400  0.00001900  0.99997400  1
  S  S9  1  0.00000700  0.00001600  0.49995800  1
  S  S10  1  0.50002000  0.50001500  0.00004400  1
  S  S11  1  0.49997900  0.50001000  0.50002800  1
  S  S12  1  0.99999800  0.49999300  0.32455500  1
  S  S13  1  0.99999500  0.50000600  0.82454500  1
  S  S14  1  0.50000300  0.00000900  0.17544200  1
  S  S15  1  0.49999300  0.00002600  0.67545600  1
loop_
 _atom_site_moment_label
 _atom_site_moment_crystalaxis_x
 _atom_site_moment_crystalaxis_y
 _atom_site_moment_crystalaxis_z
  Ba0  0.00000004  0.00000036  0.00600000
  Ba1  -0.00000004  -0.00000036  -0.00600000
  Ba2  0.00000004  0.00000036  0.00600000
  Ba3  -0.00000004  -0.00000036  -0.00600000
  Cr4  -0.00002183  -0.00021487  -3.61900002
  Cr5  -0.00002183  -0.00021487  -3.61900002
  Cr6  0.00002183  0.00021487  3.61900002
  Cr7  0.00002183  0.00021487  3.61900002
  S8  0.00000000  0.00000006  0.00100000
  S9  0.00000000  -0.00000006  -0.00100000
  S10  0.00000000  -0.00000006  -0.00100000
  S11  0.00000000  0.00000006  0.00100000
  S12  0.00000004  0.00000036  0.00600000
  S13  -0.00000004  -0.00000036  -0.00600000
  S14  0.00000004  0.00000036  0.00600000
  S15  -0.00000004  -0.00000036  -0.00600000
