# generated using pymatgen
data_Na2Fe3S4
_symmetry_space_group_name_H-M   'P 1'
_cell_length_a   3.96977057
_cell_length_b   7.93446307
_cell_length_c   12.65146297
_cell_angle_alpha   82.00044026
_cell_angle_beta   98.24244549
_cell_angle_gamma   104.02843189
_symmetry_Int_Tables_number   1
_chemical_formula_structural   Na2Fe3S4
_chemical_formula_sum   'Na4 Fe6 S8'
_cell_volume   380.34813169
_cell_formula_units_Z   2
loop_
 _symmetry_equiv_pos_site_id
 _symmetry_equiv_pos_as_xyz
  1  'x, y, z'
loop_
 _atom_site_type_symbol
 _atom_site_label
 _atom_site_symmetry_multiplicity
 _atom_site_fract_x
 _atom_site_fract_y
 _atom_site_fract_z
 _atom_site_occupancy
  Na  Na0  1  0.51094000  0.26001600  0.76163300  1
  Na  Na1  1  0.51112400  0.75880200  0.26288600  1
  Na  Na2  1  0.00739600  0.01978000  0.99889200  1
  Na  Na3  1  0.00626900  0.51968200  0.49857300  1
  Fe  Fe4  1  0.68554500  0.69242400  0.66692100  1
  Fe  Fe5  1  0.81220800  0.54498000  0.05575300  1
  Fe  Fe6  1  0.30723900  0.28294900  0.33377700  1
  Fe  Fe7  1  0.68387400  0.19046400  0.16548300  1
  Fe  Fe8  1  0.80329200  0.04360500  0.55405700  1
  Fe  Fe9  1  0.30663700  0.77760500  0.83475500  1
  S  S10  1  0.13512600  0.53710100  0.73214000  1
  S  S11  1  0.13246300  0.03778200  0.23481800  1
  S  S12  1  0.62010700  0.27850600  0.98425100  1
  S  S13  1  0.62125300  0.77587100  0.48468000  1
  S  S14  1  0.85825400  0.45711600  0.26142500  1
  S  S15  1  0.85782600  0.95282700  0.76315200  1
  S  S16  1  0.37974700  0.73106800  0.02540600  1
  S  S17  1  0.37859200  0.23158000  0.52502400  1
loop_
 _atom_site_moment_label
 _atom_site_moment_crystalaxis_x
 _atom_site_moment_crystalaxis_y
 _atom_site_moment_crystalaxis_z
  Na2  -0.00004029  -0.00207393  -0.00315485
  Na3  0.00004029  0.00207393  0.00315485
  Fe4  -0.03548336  -1.82661236  -2.77863021
  Fe5  -0.03630926  -1.86912789  -2.84330455
  Fe6  -0.03609775  -1.85823976  -2.82674161
  Fe7  0.03554379  1.82972325  2.78336248
  Fe8  0.03634955  1.87120181  2.84645939
  Fe9  0.03605746  1.85616583  2.82358676
  S10  -0.00008058  -0.00414786  -0.00630969
  S11  0.00008058  0.00414786  0.00630969
  S12  0.00007050  0.00362937  0.00552098
  S13  -0.00010072  -0.00518482  -0.00788711
  S14  -0.00025180  -0.01296205  -0.01971778
  S15  0.00025180  0.01296205  0.01971778
  S16  -0.00009065  -0.00466634  -0.00709840
  S17  0.00010072  0.00518482  0.00788711
