# generated using pymatgen
data_BeAlCo2
_symmetry_space_group_name_H-M   'P 1'
_cell_length_a   9.47636013
_cell_length_b   9.49189473
_cell_length_c   9.49165812
_cell_angle_alpha   60.00402183
_cell_angle_beta   60.05087255
_cell_angle_gamma   60.05095084
_symmetry_Int_Tables_number   1
_chemical_formula_structural   BeAlCo2
_chemical_formula_sum   'Be1 Al1 Co2'
_cell_volume   604.18307122
_cell_formula_units_Z   1
loop_
 _symmetry_equiv_pos_site_id
 _symmetry_equiv_pos_as_xyz
  1  'x, y, z'
loop_
 _atom_site_type_symbol
 _atom_site_label
 _atom_site_symmetry_multiplicity
 _atom_site_fract_x
 _atom_site_fract_y
 _atom_site_fract_z
 _atom_site_occupancy
  Be  Be0  1  0.99987600  0.00000000  0.99999600  1
  Al  Al1  1  0.50003500  0.99999600  0.00000000  1
  Co  Co2  1  0.76061000  0.00000500  0.00000300  1
  Co  Co3  1  0.23947900  0.99999900  0.00000000  1
loop_
 _atom_site_moment_label
 _atom_site_moment_crystalaxis_x
 _atom_site_moment_crystalaxis_y
 _atom_site_moment_crystalaxis_z
  Be0  0.00004085  0.00000038  -0.00202027
  Al1  0.00006128  0.00000057  -0.00303041
  Co2  0.04095456  0.00038424  -2.02532184
  Co3  -0.04105669  -0.00038520  2.03037252
