# generated using pymatgen
data_Mg(CrS2)2
_symmetry_space_group_name_H-M   'P 1'
_cell_length_a   7.27148579
_cell_length_b   7.27138991
_cell_length_c   7.27151100
_cell_angle_alpha   60.00061800
_cell_angle_beta   60.00119896
_cell_angle_gamma   60.00060624
_symmetry_Int_Tables_number   1
_chemical_formula_structural   Mg(CrS2)2
_chemical_formula_sum   'Mg2 Cr4 S8'
_cell_volume   271.86807620
_cell_formula_units_Z   2
loop_
 _symmetry_equiv_pos_site_id
 _symmetry_equiv_pos_as_xyz
  1  'x, y, z'
loop_
 _atom_site_type_symbol
 _atom_site_label
 _atom_site_symmetry_multiplicity
 _atom_site_fract_x
 _atom_site_fract_y
 _atom_site_fract_z
 _atom_site_occupancy
  Mg  Mg0  1  0.75000100  0.75000100  0.74999900  1
  Mg  Mg1  1  0.99999900  0.00000000  0.00000100  1
  Cr  Cr2  1  0.37500000  0.87500100  0.37500000  1
  Cr  Cr3  1  0.87500100  0.37500000  0.37499900  1
  Cr  Cr4  1  0.37500000  0.37500000  0.87500100  1
  Cr  Cr5  1  0.37499900  0.37500000  0.37499900  1
  S  S6  1  0.61255400  0.16233700  0.61255300  1
  S  S7  1  0.58772800  0.13742400  0.13742500  1
  S  S8  1  0.13742400  0.13742500  0.13742500  1
  S  S9  1  0.13742500  0.13742400  0.58772600  1
  S  S10  1  0.61255400  0.61255400  0.61255200  1
  S  S11  1  0.61255300  0.61255400  0.16233900  1
  S  S12  1  0.13742400  0.58772700  0.13742600  1
  S  S13  1  0.16233800  0.61255300  0.61255400  1
loop_
 _atom_site_moment_label
 _atom_site_moment_crystalaxis_x
 _atom_site_moment_crystalaxis_y
 _atom_site_moment_crystalaxis_z
  Mg0  0.00000006  0.00000005  0.00599994
  Mg1  0.00000006  0.00000005  0.00599994
  Cr2  0.00003266  0.00002585  3.13197074
  Cr3  0.00003266  0.00002585  3.13197074
  Cr4  0.00003266  0.00002585  3.13197074
  Cr5  0.00003266  0.00002585  3.13197074
  S6  -0.00000124  -0.00000098  -0.11899889
  S7  -0.00000124  -0.00000098  -0.11899889
  S8  -0.00000124  -0.00000098  -0.11899889
  S9  -0.00000124  -0.00000098  -0.11899889
  S10  -0.00000124  -0.00000098  -0.11899889
  S11  -0.00000124  -0.00000098  -0.11899889
  S12  -0.00000124  -0.00000098  -0.11899889
  S13  -0.00000124  -0.00000098  -0.11899889
