# generated using pymatgen
data_Na(VSe2)2
_symmetry_space_group_name_H-M   'P 1'
_cell_length_a   3.69634388
_cell_length_b   29.26106713
_cell_length_c   3.70281682
_cell_angle_alpha   89.80365578
_cell_angle_beta   59.24213922
_cell_angle_gamma   86.26266842
_symmetry_Int_Tables_number   1
_chemical_formula_structural   Na(VSe2)2
_chemical_formula_sum   'Na2 V4 Se8'
_cell_volume   343.21716871
_cell_formula_units_Z   2
loop_
 _symmetry_equiv_pos_site_id
 _symmetry_equiv_pos_as_xyz
  1  'x, y, z'
loop_
 _atom_site_type_symbol
 _atom_site_label
 _atom_site_symmetry_multiplicity
 _atom_site_fract_x
 _atom_site_fract_y
 _atom_site_fract_z
 _atom_site_occupancy
  Na  Na0  1  0.08253600  0.37492600  0.45800400  1
  Na  Na1  1  0.08283000  0.87477900  0.95804400  1
  V  V2  1  0.99907300  0.50179500  0.50038600  1
  V  V3  1  0.50067200  0.24867700  0.75018900  1
  V  V4  1  0.99939600  0.00184900  0.00052100  1
  V  V5  1  0.50056000  0.74867500  0.24966100  1
  Se  Se6  1  0.79750900  0.30261600  0.10092500  1
  Se  Se7  1  0.79803900  0.80260600  0.60096100  1
  Se  Se8  1  0.29688600  0.05195800  0.35019200  1
  Se  Se9  1  0.29720400  0.55170900  0.85054600  1
  Se  Se10  1  0.70299300  0.44772800  0.14983200  1
  Se  Se11  1  0.70301300  0.94777900  0.64983700  1
  Se  Se12  1  0.20233500  0.19866600  0.39892800  1
  Se  Se13  1  0.20205500  0.69858200  0.89942500  1
loop_
 _atom_site_moment_label
 _atom_site_moment_crystalaxis_x
 _atom_site_moment_crystalaxis_y
 _atom_site_moment_crystalaxis_z
  V2  0.00350492  -1.97238984  -0.24550478
  V3  0.00354723  -1.99620139  -0.24846862
  V4  -0.00350845  1.97437414  0.24575176
  V5  -0.00354900  1.99719354  0.24859211
  Se6  -0.00019746  0.11112055  0.01383126
  Se7  0.00019922  -0.11211270  -0.01395475
  Se8  0.00030148  -0.16965728  -0.02111736
  Se9  -0.00029972  0.16866513  0.02099387
  Se10  -0.00023272  0.13096351  0.01630112
  Se11  0.00023272  -0.13096351  -0.01630112
  Se12  -0.00028914  0.16271224  0.02025291
  Se13  0.00029090  -0.16370439  -0.02037640
