# generated using pymatgen
data_KCr5Te8
_symmetry_space_group_name_H-M   'P 1'
_cell_length_a   4.06782748
_cell_length_b   9.75726679
_cell_length_c   10.59769587
_cell_angle_alpha   104.32880793
_cell_angle_beta   101.06813706
_cell_angle_gamma   89.99667474
_symmetry_Int_Tables_number   1
_chemical_formula_structural   KCr5Te8
_chemical_formula_sum   'K1 Cr5 Te8'
_cell_volume   399.46767877
_cell_formula_units_Z   1
loop_
 _symmetry_equiv_pos_site_id
 _symmetry_equiv_pos_as_xyz
  1  'x, y, z'
loop_
 _atom_site_type_symbol
 _atom_site_label
 _atom_site_symmetry_multiplicity
 _atom_site_fract_x
 _atom_site_fract_y
 _atom_site_fract_z
 _atom_site_occupancy
  K  K0  1  0.50000000  0.49999900  0.00000100  1
  Cr  Cr1  1  0.99999600  0.00000100  0.99999900  1
  Cr  Cr2  1  0.34161600  0.01543500  0.68302300  1
  Cr  Cr3  1  0.65838300  0.98456500  0.31697700  1
  Cr  Cr4  1  0.29544600  0.66788000  0.59082000  1
  Cr  Cr5  1  0.70455800  0.33212000  0.40918000  1
  Te  Te6  1  0.57228000  0.16265200  0.14547400  1
  Te  Te7  1  0.42771500  0.83734700  0.85452700  1
  Te  Te8  1  0.08626000  0.82470200  0.17320800  1
  Te  Te9  1  0.91373900  0.17529900  0.82679100  1
  Te  Te10  1  0.16941600  0.49167700  0.33813300  1
  Te  Te11  1  0.83058800  0.50832300  0.66186800  1
  Te  Te12  1  0.23947900  0.15778900  0.47845800  1
  Te  Te13  1  0.76052300  0.84221100  0.52154200  1
loop_
 _atom_site_moment_label
 _atom_site_moment_crystalaxis_x
 _atom_site_moment_crystalaxis_y
 _atom_site_moment_crystalaxis_z
  K0  0.00000621  0.00000052  -0.00499867
  Cr1  -0.00434212  -0.00036447  3.49407362
  Cr2  -0.00436946  -0.00036676  3.51606779
  Cr3  -0.00436946  -0.00036676  3.51606779
  Cr4  -0.00436449  -0.00036635  3.51206885
  Cr5  -0.00436449  -0.00036635  3.51206885
  Te6  0.00035532  0.00002982  -0.28592419
  Te7  0.00035532  0.00002982  -0.28592419
  Te8  0.00035159  0.00002951  -0.28292499
  Te9  0.00035159  0.00002951  -0.28292499
  Te10  0.00040129  0.00003368  -0.32291439
  Te11  0.00040129  0.00003368  -0.32291439
  Te12  0.00032302  0.00002711  -0.25993108
  Te13  0.00032302  0.00002711  -0.25993108
