# generated using pymatgen
data_Li3MnP2
_symmetry_space_group_name_H-M   'P 1'
_cell_length_a   4.13952100
_cell_length_b   4.13952000
_cell_length_c   5.90662400
_cell_angle_alpha   90.00005678
_cell_angle_beta   90.00021743
_cell_angle_gamma   90.00000000
_symmetry_Int_Tables_number   1
_chemical_formula_structural   Li3MnP2
_chemical_formula_sum   'Li3 Mn1 P2'
_cell_volume   101.21372324
_cell_formula_units_Z   1
loop_
 _symmetry_equiv_pos_site_id
 _symmetry_equiv_pos_as_xyz
  1  'x, y, z'
loop_
 _atom_site_type_symbol
 _atom_site_label
 _atom_site_symmetry_multiplicity
 _atom_site_fract_x
 _atom_site_fract_y
 _atom_site_fract_z
 _atom_site_occupancy
  Li  Li0  1  0.00000000  0.00000000  0.00000000  1
  Li  Li1  1  0.49999900  0.50000000  0.00000000  1
  Li  Li2  1  0.50000000  0.50000000  0.50000000  1
  Mn  Mn3  1  0.00000200  0.99999900  0.50000000  1
  P  P4  1  0.00000000  0.50000100  0.25802200  1
  P  P5  1  0.49999900  0.00000000  0.74197800  1
loop_
 _atom_site_moment_label
 _atom_site_moment_crystalaxis_x
 _atom_site_moment_crystalaxis_y
 _atom_site_moment_crystalaxis_z
  Li0  0.00000000  0.00000000  -0.00200000
  Li1  0.00000000  0.00000000  0.00300000
  Li2  0.00000000  0.00000000  -0.00400000
  Mn3  0.00000816  0.00000222  4.37900000
  P4  -0.00000032  -0.00000009  -0.17300000
  P5  -0.00000032  -0.00000009  -0.17300000
