# generated using pymatgen
data_Mg2MnGa3
_symmetry_space_group_name_H-M   'P 1'
_cell_length_a   5.48286467
_cell_length_b   5.48289959
_cell_length_c   8.81382900
_cell_angle_alpha   90.00073249
_cell_angle_beta   90.00133937
_cell_angle_gamma   119.97900459
_symmetry_Int_Tables_number   1
_chemical_formula_structural   Mg2MnGa3
_chemical_formula_sum   'Mg4 Mn2 Ga6'
_cell_volume   229.51174403
_cell_formula_units_Z   2
loop_
 _symmetry_equiv_pos_site_id
 _symmetry_equiv_pos_as_xyz
  1  'x, y, z'
loop_
 _atom_site_type_symbol
 _atom_site_label
 _atom_site_symmetry_multiplicity
 _atom_site_fract_x
 _atom_site_fract_y
 _atom_site_fract_z
 _atom_site_occupancy
  Mg  Mg0  1  0.67236400  0.32760400  0.93340100  1
  Mg  Mg1  1  0.32764100  0.67239100  0.06659700  1
  Mg  Mg2  1  0.32760700  0.67235900  0.43339800  1
  Mg  Mg3  1  0.67239700  0.32763500  0.56660500  1
  Mn  Mn4  1  0.16278100  0.83721800  0.75000000  1
  Mn  Mn5  1  0.83721700  0.16278200  0.25000000  1
  Ga  Ga6  1  0.99999800  0.00000300  0.50000400  1
  Ga  Ga7  1  0.99999800  0.00000100  0.99999600  1
  Ga  Ga8  1  0.35203500  0.16916800  0.24999700  1
  Ga  Ga9  1  0.64796300  0.83083600  0.75000300  1
  Ga  Ga10  1  0.83086700  0.64797600  0.25000900  1
  Ga  Ga11  1  0.16913300  0.35202600  0.74999000  1
loop_
 _atom_site_moment_label
 _atom_site_moment_crystalaxis_x
 _atom_site_moment_crystalaxis_y
 _atom_site_moment_crystalaxis_z
  Mg0  0.00000010  0.00000008  0.00500000
  Mg1  -0.00000010  -0.00000008  -0.00500000
  Mg2  -0.00000010  -0.00000008  -0.00500000
  Mg3  0.00000010  0.00000008  0.00500000
  Mn4  -0.00008362  -0.00006846  -4.28900000
  Mn5  0.00008362  0.00006846  4.28900000
  Ga8  -0.00000072  -0.00000059  -0.03700000
  Ga9  0.00000072  0.00000059  0.03700000
  Ga10  -0.00000072  -0.00000059  -0.03700000
  Ga11  0.00000072  0.00000059  0.03700000
