# generated using pymatgen
data_CsV5Se8
_symmetry_space_group_name_H-M   'P 1'
_cell_length_a   3.81931456
_cell_length_b   18.82985518
_cell_length_c   9.91240702
_cell_angle_alpha   104.53489570
_cell_angle_beta   101.04376924
_cell_angle_gamma   89.96686653
_symmetry_Int_Tables_number   1
_chemical_formula_structural   CsV5Se8
_chemical_formula_sum   'Cs2 V10 Se16'
_cell_volume   676.43050829
_cell_formula_units_Z   2
loop_
 _symmetry_equiv_pos_site_id
 _symmetry_equiv_pos_as_xyz
  1  'x, y, z'
loop_
 _atom_site_type_symbol
 _atom_site_label
 _atom_site_symmetry_multiplicity
 _atom_site_fract_x
 _atom_site_fract_y
 _atom_site_fract_z
 _atom_site_occupancy
  Cs  Cs0  1  0.49955100  0.24996200  0.99968100  1
  Cs  Cs1  1  0.50010500  0.74997600  0.00022400  1
  V  V2  1  0.34177000  0.01219800  0.68416600  1
  V  V3  1  0.34213600  0.51219900  0.68472700  1
  V  V4  1  0.65709100  0.48764600  0.31502700  1
  V  V5  1  0.65807900  0.98778500  0.31553200  1
  V  V6  1  0.29420100  0.33091300  0.58856700  1
  V  V7  1  0.29547100  0.83066100  0.58917100  1
  V  V8  1  0.70502200  0.16956500  0.41088400  1
  V  V9  1  0.70591700  0.66935700  0.41171600  1
  V  V10  1  0.99953600  0.49983700  0.99994500  1
  V  V11  1  0.00060800  0.99990800  0.00010900  1
  Se  Se12  1  0.57585800  0.07790600  0.15126300  1
  Se  Se13  1  0.57528000  0.57803400  0.15092300  1
  Se  Se14  1  0.42386300  0.42194400  0.84911600  1
  Se  Se15  1  0.42553900  0.92212100  0.84880800  1
  Se  Se16  1  0.08556700  0.41425700  0.17259200  1
  Se  Se17  1  0.08609200  0.91463900  0.17272300  1
  Se  Se18  1  0.91424400  0.08527100  0.82733500  1
  Se  Se19  1  0.91371600  0.58564600  0.82736900  1
  Se  Se20  1  0.16805600  0.24413300  0.33685200  1
  Se  Se21  1  0.16872500  0.74375800  0.33718900  1
  Se  Se22  1  0.83127600  0.25627700  0.66294800  1
  Se  Se23  1  0.83255800  0.75597700  0.66327600  1
  Se  Se24  1  0.23839700  0.07854800  0.47672500  1
  Se  Se25  1  0.23828700  0.57814200  0.47649700  1
  Se  Se26  1  0.76126800  0.42184200  0.52344900  1
  Se  Se27  1  0.76178600  0.92150100  0.52318700  1
loop_
 _atom_site_moment_label
 _atom_site_moment_crystalaxis_x
 _atom_site_moment_crystalaxis_y
 _atom_site_moment_crystalaxis_z
  Cs0  0.00006370  0.00001059  -0.00498474
  Cs1  0.00006370  0.00001059  -0.00498474
  V2  -0.02639625  -0.00438992  2.06567815
  V3  -0.02603954  -0.00433060  2.03776358
  V4  -0.02602680  -0.00432848  2.03676663
  V5  -0.02639625  -0.00438992  2.06567815
  V6  -0.02640899  -0.00439204  2.06667510
  V7  -0.02648543  -0.00440475  2.07265680
  V8  -0.02648543  -0.00440475  2.07265680
  V9  -0.02640899  -0.00439204  2.06667510
  V10  0.02519874  0.00419076  -1.97196496
  V11  -0.02601406  -0.00432636  2.03576969
  Se12  0.00127395  0.00021187  -0.09969489
  Se13  0.00019109  0.00003178  -0.01495423
  Se14  0.00019109  0.00003178  -0.01495423
  Se15  0.00127395  0.00021187  -0.09969489
  Se16  0.00064971  0.00010805  -0.05084439
  Se17  0.00147778  0.00024577  -0.11564607
  Se18  0.00147778  0.00024577  -0.11564607
  Se19  0.00064971  0.00010805  -0.05084439
  Se20  0.00152874  0.00025424  -0.11963387
  Se21  0.00151600  0.00025212  -0.11863692
  Se22  0.00151600  0.00025212  -0.11863692
  Se23  0.00152874  0.00025424  -0.11963387
  Se24  0.00119751  0.00019916  -0.09371320
  Se25  0.00119751  0.00019916  -0.09371320
  Se26  0.00119751  0.00019916  -0.09371320
  Se27  0.00119751  0.00019916  -0.09371320
