# generated using pymatgen
data_Ca2MnSi2
_symmetry_space_group_name_H-M   'P 1'
_cell_length_a   9.04780284
_cell_length_b   9.05886731
_cell_length_c   42.00274277
_cell_angle_alpha   84.43584072
_cell_angle_beta   84.41983196
_cell_angle_gamma   95.36094257
_symmetry_Int_Tables_number   1
_chemical_formula_structural   Ca2MnSi2
_chemical_formula_sum   'Ca8 Mn4 Si8'
_cell_volume   3391.77139173
_cell_formula_units_Z   4
loop_
 _symmetry_equiv_pos_site_id
 _symmetry_equiv_pos_as_xyz
  1  'x, y, z'
loop_
 _atom_site_type_symbol
 _atom_site_label
 _atom_site_symmetry_multiplicity
 _atom_site_fract_x
 _atom_site_fract_y
 _atom_site_fract_z
 _atom_site_occupancy
  Ca  Ca0  1  0.70864800  0.20855700  0.58330900  1
  Ca  Ca1  1  0.46104200  0.96068000  0.08115100  1
  Ca  Ca2  1  0.20897600  0.70830600  0.58221400  1
  Ca  Ca3  1  0.95810800  0.45764900  0.08204900  1
  Ca  Ca4  1  0.54078900  0.04091800  0.91881800  1
  Ca  Ca5  1  0.29081500  0.79050300  0.41785800  1
  Ca  Ca6  1  0.04115000  0.54154000  0.91786800  1
  Ca  Ca7  1  0.79187900  0.29184300  0.41673600  1
  Mn  Mn8  1  0.49882100  0.99848400  0.99996400  1
  Mn  Mn9  1  0.24929600  0.75196900  0.50006700  1
  Mn  Mn10  1  0.75028800  0.24891300  0.50002300  1
  Mn  Mn11  1  0.00048000  0.50030300  0.99996600  1
  Si  Si12  1  0.57381000  0.07341900  0.85256600  1
  Si  Si13  1  0.32434400  0.82460000  0.35147200  1
  Si  Si14  1  0.07435100  0.57440500  0.85138900  1
  Si  Si15  1  0.82573800  0.32532100  0.35013200  1
  Si  Si16  1  0.67430400  0.17450200  0.64991500  1
  Si  Si17  1  0.42593000  0.92612900  0.14740000  1
  Si  Si18  1  0.17528900  0.67619900  0.64858400  1
  Si  Si19  1  0.92594200  0.42575900  0.14852200  1
loop_
 _atom_site_moment_label
 _atom_site_moment_crystalaxis_x
 _atom_site_moment_crystalaxis_y
 _atom_site_moment_crystalaxis_z
  Ca0  -0.01651306  -0.01649926  0.15360587
  Ca1  -0.01423165  -0.01421975  0.13238401
  Ca2  -0.01596986  -0.01595652  0.14855305
  Ca3  -0.01336254  -0.01335137  0.12429949
  Ca4  -0.01423165  -0.01421975  0.13238401
  Ca5  -0.01596986  -0.01595652  0.14855305
  Ca6  -0.01325390  -0.01324282  0.12328892
  Ca7  -0.01651306  -0.01649926  0.15360587
  Mn8  0.52103036  0.52059492  -4.84666950
  Mn9  0.51842303  0.51798978  -4.82241594
  Mn10  -0.51766256  -0.51722994  4.81534198
  Mn11  -0.51364294  -0.51321368  4.77795108
  Si12  -0.06746452  -0.06740814  0.62756083
  Si13  -0.06735588  -0.06729959  0.62655027
  Si14  -0.06735588  -0.06729959  0.62655027
  Si15  -0.06844227  -0.06838507  0.63665592
  Si16  -0.06844227  -0.06838507  0.63665592
  Si17  -0.06746452  -0.06740814  0.62756083
  Si18  -0.06735588  -0.06729959  0.62655027
  Si19  -0.06746452  -0.06740814  0.62756083
