# generated using pymatgen
data_MgSnRu2
_symmetry_space_group_name_H-M   'P 1'
_cell_length_a   10.27341028
_cell_length_b   10.65005760
_cell_length_c   10.66361360
_cell_angle_alpha   60.64132210
_cell_angle_beta   61.19996778
_cell_angle_gamma   61.15771803
_symmetry_Int_Tables_number   1
_chemical_formula_structural   MgSnRu2
_chemical_formula_sum   'Mg1 Sn1 Ru2'
_cell_volume   843.53279073
_cell_formula_units_Z   1
loop_
 _symmetry_equiv_pos_site_id
 _symmetry_equiv_pos_as_xyz
  1  'x, y, z'
loop_
 _atom_site_type_symbol
 _atom_site_label
 _atom_site_symmetry_multiplicity
 _atom_site_fract_x
 _atom_site_fract_y
 _atom_site_fract_z
 _atom_site_occupancy
  Mg  Mg0  1  0.00065900  0.00000200  0.00001000  1
  Sn  Sn1  1  0.49976100  0.00001500  0.99997300  1
  Ru  Ru2  1  0.74141400  0.99998900  0.00001100  1
  Ru  Ru3  1  0.25816600  0.99999300  0.00000600  1
loop_
 _atom_site_moment_label
 _atom_site_moment_crystalaxis_x
 _atom_site_moment_crystalaxis_y
 _atom_site_moment_crystalaxis_z
  Sn1  0.00001909  0.00000276  0.00298940
  Ru2  -0.01438023  -0.00208251  -2.25201214
  Ru3  0.01432932  0.00207514  2.24404041
