# generated using pymatgen
data_Cs(CrS2)2
_symmetry_space_group_name_H-M   'P 1'
_cell_length_a   3.60873329
_cell_length_b   5.89154910
_cell_length_c   8.76606555
_cell_angle_alpha   103.20889473
_cell_angle_beta   101.87581753
_cell_angle_gamma   89.96646687
_symmetry_Int_Tables_number   1
_chemical_formula_structural   Cs(CrS2)2
_chemical_formula_sum   'Cs1 Cr2 S4'
_cell_volume   177.35000141
_cell_formula_units_Z   1
loop_
 _symmetry_equiv_pos_site_id
 _symmetry_equiv_pos_as_xyz
  1  'x, y, z'
loop_
 _atom_site_type_symbol
 _atom_site_label
 _atom_site_symmetry_multiplicity
 _atom_site_fract_x
 _atom_site_fract_y
 _atom_site_fract_z
 _atom_site_occupancy
  Cs  Cs0  1  0.49999500  0.49999600  0.99999800  1
  Cr  Cr1  1  0.75227600  0.75933300  0.50426000  1
  Cr  Cr2  1  0.24774200  0.24066600  0.49574400  1
  S  S3  1  0.33402100  0.96934100  0.66791200  1
  S  S4  1  0.66597300  0.03066100  0.33208700  1
  S  S5  1  0.82774000  0.46117500  0.65568600  1
  S  S6  1  0.17225400  0.53882900  0.34431300  1
loop_
 _atom_site_moment_label
 _atom_site_moment_crystalaxis_x
 _atom_site_moment_crystalaxis_y
 _atom_site_moment_crystalaxis_z
  Cs0  0.00002149  0.00000265  -0.00399492
  Cr1  -0.01649465  -0.00203744  3.06609742
  Cr2  -0.01649465  -0.00203744  3.06609742
  S3  0.00127337  0.00015729  -0.23669873
  S4  0.00127337  0.00015729  -0.23669873
  S5  0.00120352  0.00014866  -0.22371525
  S6  0.00120352  0.00014866  -0.22371525
