# generated using pymatgen
data_VGa
_symmetry_space_group_name_H-M   'P 1'
_cell_length_a   3.43178961
_cell_length_b   5.45011322
_cell_length_c   4.64371967
_cell_angle_alpha   55.41434738
_cell_angle_beta   90.00193537
_cell_angle_gamma   71.54944380
_symmetry_Int_Tables_number   1
_chemical_formula_structural   VGa
_chemical_formula_sum   'V2 Ga2'
_cell_volume   66.01007763
_cell_formula_units_Z   2
loop_
 _symmetry_equiv_pos_site_id
 _symmetry_equiv_pos_as_xyz
  1  'x, y, z'
loop_
 _atom_site_type_symbol
 _atom_site_label
 _atom_site_symmetry_multiplicity
 _atom_site_fract_x
 _atom_site_fract_y
 _atom_site_fract_z
 _atom_site_occupancy
  V  V0  1  0.50007700  0.99981900  0.58239600  1
  V  V1  1  0.00008000  0.99981500  0.08236000  1
  Ga  Ga2  1  0.24992300  0.50018100  0.83429100  1
  Ga  Ga3  1  0.74992000  0.50018500  0.33428600  1
loop_
 _atom_site_moment_label
 _atom_site_moment_crystalaxis_x
 _atom_site_moment_crystalaxis_y
 _atom_site_moment_crystalaxis_z
  V0  1.02534411  -3.26105900  1.62209823
  V1  -1.02534411  3.26105900  -1.62209823
