# generated using pymatgen
data_Mg(Co3P2)2
_symmetry_space_group_name_H-M   'P 1'
_cell_length_a   3.62810710
_cell_length_b   7.25934100
_cell_length_c   10.49114611
_cell_angle_alpha   89.91513008
_cell_angle_beta   89.99997318
_cell_angle_gamma   90.02694492
_symmetry_Int_Tables_number   1
_chemical_formula_structural   Mg(Co3P2)2
_chemical_formula_sum   'Mg2 Co12 P8'
_cell_volume   276.31197495
_cell_formula_units_Z   2
loop_
 _symmetry_equiv_pos_site_id
 _symmetry_equiv_pos_as_xyz
  1  'x, y, z'
loop_
 _atom_site_type_symbol
 _atom_site_label
 _atom_site_symmetry_multiplicity
 _atom_site_fract_x
 _atom_site_fract_y
 _atom_site_fract_z
 _atom_site_occupancy
  Mg  Mg0  1  0.99999500  0.49981500  0.63173100  1
  Mg  Mg1  1  0.00000200  0.99999900  0.13186800  1
  Co  Co2  1  0.00000000  0.00001600  0.84977100  1
  Co  Co3  1  0.50000100  0.49996700  0.00166200  1
  Co  Co4  1  0.50000200  0.00025600  0.50174100  1
  Co  Co5  1  0.00000000  0.49991600  0.34993600  1
  Co  Co6  1  0.50005100  0.68928000  0.20553600  1
  Co  Co7  1  0.50005000  0.18942400  0.70538900  1
  Co  Co8  1  0.49995300  0.31077500  0.20558700  1
  Co  Co9  1  0.49994900  0.81052100  0.70543400  1
  Co  Co10  1  0.99971000  0.27614000  0.00371700  1
  Co  Co11  1  0.99970400  0.77596800  0.50374200  1
  Co  Co12  1  0.00029300  0.72386200  0.00377400  1
  Co  Co13  1  0.00029000  0.22419100  0.50371800  1
  P  P14  1  0.49999200  0.50000700  0.79613000  1
  P  P15  1  0.50000000  0.00000000  0.29601900  1
  P  P16  1  0.00000100  0.49995300  0.13875700  1
  P  P17  1  0.00000100  0.00007100  0.63869500  1
  P  P18  1  0.50030200  0.80514000  0.91496100  1
  P  P19  1  0.50030100  0.30502100  0.41519700  1
  P  P20  1  0.49970900  0.19487800  0.91500700  1
  P  P21  1  0.49969600  0.69480000  0.41503200  1
loop_
 _atom_site_moment_label
 _atom_site_moment_crystalaxis_x
 _atom_site_moment_crystalaxis_y
 _atom_site_moment_crystalaxis_z
  Mg0  -0.00000079  -0.00335646  -0.00496838
  Mg1  -0.00000079  -0.00335646  -0.00496838
  Co2  0.00005903  0.25061589  0.37097204
  Co3  0.00002622  0.11132268  0.16478446
  Co4  0.00002741  0.11635738  0.17223702
  Co5  0.00006061  0.25732881  0.38090879
  Co6  0.00015918  0.67576784  1.00029962
  Co7  0.00015931  0.67632725  1.00112768
  Co8  0.00015891  0.67464902  0.99864349
  Co9  0.00015970  0.67800548  1.00361187
  Co10  0.00002767  0.11747620  0.17389315
  Co11  0.00002952  0.12530794  0.18548602
  Co12  0.00002754  0.11691679  0.17306508
  Co13  0.00002965  0.12586735  0.18631408
  P14  0.00000224  0.00950998  0.01407706
  P15  0.00000224  0.00950998  0.01407706
  P16  -0.00000105  -0.00447528  -0.00662450
  P17  -0.00000105  -0.00447528  -0.00662450
  P18  -0.00000290  -0.01230703  -0.01821738
  P19  -0.00000290  -0.01230703  -0.01821738
  P20  -0.00000290  -0.01230703  -0.01821738
  P21  -0.00000290  -0.01230703  -0.01821738
