# generated using pymatgen
data_K(CrS2)2
_symmetry_space_group_name_H-M   'P 1'
_cell_length_a   7.72819171
_cell_length_b   7.72822806
_cell_length_c   7.72819300
_cell_angle_alpha   60.00021087
_cell_angle_beta   60.00005412
_cell_angle_gamma   60.00021712
_symmetry_Int_Tables_number   1
_chemical_formula_structural   K(CrS2)2
_chemical_formula_sum   'K2 Cr4 S8'
_cell_volume   326.37911497
_cell_formula_units_Z   2
loop_
 _symmetry_equiv_pos_site_id
 _symmetry_equiv_pos_as_xyz
  1  'x, y, z'
loop_
 _atom_site_type_symbol
 _atom_site_label
 _atom_site_symmetry_multiplicity
 _atom_site_fract_x
 _atom_site_fract_y
 _atom_site_fract_z
 _atom_site_occupancy
  K  K0  1  0.50000000  0.50000000  0.50000000  1
  K  K1  1  0.25000000  0.25000000  0.25000000  1
  Cr  Cr2  1  0.87500000  0.87500000  0.87500000  1
  Cr  Cr3  1  0.87500000  0.87500000  0.37500000  1
  Cr  Cr4  1  0.87500000  0.37500000  0.87500000  1
  Cr  Cr5  1  0.37500000  0.87500000  0.87500000  1
  S  S6  1  0.65035100  0.65035100  0.65035000  1
  S  S7  1  0.09965000  0.09964900  0.70105200  1
  S  S8  1  0.70105200  0.09964900  0.09964900  1
  S  S9  1  0.09964900  0.70105300  0.09964900  1
  S  S10  1  0.04894800  0.65035100  0.65035100  1
  S  S11  1  0.65035100  0.04894700  0.65035100  1
  S  S12  1  0.09965000  0.09964900  0.09965000  1
  S  S13  1  0.65035000  0.65035100  0.04894800  1
loop_
 _atom_site_moment_label
 _atom_site_moment_crystalaxis_x
 _atom_site_moment_crystalaxis_y
 _atom_site_moment_crystalaxis_z
  K0  0.00000000  0.00000000  -0.02099999
  K1  0.00000000  0.00000000  -0.02099999
  Cr2  0.00000143  0.00000155  3.25999851
  Cr3  0.00000143  0.00000155  3.25899851
  Cr4  0.00000143  0.00000155  3.25899851
  Cr5  0.00000143  0.00000155  3.25899851
  S6  -0.00000014  -0.00000015  -0.32099985
  S7  -0.00000014  -0.00000015  -0.32199985
  S8  -0.00000014  -0.00000015  -0.32199985
  S9  -0.00000014  -0.00000015  -0.32199985
  S10  -0.00000014  -0.00000015  -0.32199985
  S11  -0.00000014  -0.00000015  -0.32199985
  S12  -0.00000014  -0.00000015  -0.32099985
  S13  -0.00000014  -0.00000015  -0.32199985
