# generated using pymatgen
data_LiVSe2
_symmetry_space_group_name_H-M   'P 1'
_cell_length_a   3.68490200
_cell_length_b   9.23062571
_cell_length_c   9.17929305
_cell_angle_alpha   91.54611960
_cell_angle_beta   89.99759658
_cell_angle_gamma   90.00017703
_symmetry_Int_Tables_number   1
_chemical_formula_structural   LiVSe2
_chemical_formula_sum   'Li4 V4 Se8'
_cell_volume   312.11035382
_cell_formula_units_Z   4
loop_
 _symmetry_equiv_pos_site_id
 _symmetry_equiv_pos_as_xyz
  1  'x, y, z'
loop_
 _atom_site_type_symbol
 _atom_site_label
 _atom_site_symmetry_multiplicity
 _atom_site_fract_x
 _atom_site_fract_y
 _atom_site_fract_z
 _atom_site_occupancy
  Li  Li0  1  0.50000800  0.49924700  0.00022900  1
  Li  Li1  1  0.00000800  0.25062800  0.24978200  1
  Li  Li2  1  0.99999900  0.74955100  0.74997300  1
  Li  Li3  1  0.49999500  0.00049900  0.50002700  1
  V  V4  1  0.50001600  0.25015500  0.75084400  1
  V  V5  1  0.99997300  0.49980400  0.49918200  1
  V  V6  1  0.00000900  0.00077100  0.99845400  1
  V  V7  1  0.50002100  0.74920700  0.25141100  1
  Se  Se8  1  0.99999100  0.71791400  0.05107200  1
  Se  Se9  1  0.49999300  0.46474900  0.29974300  1
  Se  Se10  1  0.50000700  0.96560400  0.79882400  1
  Se  Se11  1  0.99999900  0.21709500  0.54997500  1
  Se  Se12  1  0.50000200  0.53307100  0.70014700  1
  Se  Se13  1  0.99999500  0.28503200  0.95031500  1
  Se  Se14  1  0.99997800  0.78408500  0.45114400  1
  Se  Se15  1  0.50000700  0.03258800  0.19888000  1
loop_
 _atom_site_moment_label
 _atom_site_moment_crystalaxis_x
 _atom_site_moment_crystalaxis_y
 _atom_site_moment_crystalaxis_z
  V4  0.00002558  -1.44768421  -1.44836428
  V5  0.00002558  -1.44768421  -1.44836428
  V6  -0.00002561  1.44911756  1.44979830
  V7  -0.00002562  1.44983423  1.45051532
  Se8  0.00000094  -0.05303398  -0.05305889
  Se9  -0.00000046  0.02580031  0.02581243
  Se10  0.00000046  -0.02580031  -0.02581243
  Se11  -0.00000091  0.05160063  0.05162487
  Se12  -0.00000091  0.05160063  0.05162487
  Se13  -0.00000046  0.02580031  0.02581243
  Se14  0.00000047  -0.02651699  -0.02652944
  Se15  0.00000094  -0.05303398  -0.05305889
