# generated using pymatgen
data_MnGe2
_symmetry_space_group_name_H-M   'P 1'
_cell_length_a   5.51673797
_cell_length_b   8.73829999
_cell_length_c   5.30244147
_cell_angle_alpha   89.99898140
_cell_angle_beta   121.32231891
_cell_angle_gamma   90.00284626
_symmetry_Int_Tables_number   1
_chemical_formula_structural   MnGe2
_chemical_formula_sum   'Mn4 Ge8'
_cell_volume   218.36017185
_cell_formula_units_Z   4
loop_
 _symmetry_equiv_pos_site_id
 _symmetry_equiv_pos_as_xyz
  1  'x, y, z'
loop_
 _atom_site_type_symbol
 _atom_site_label
 _atom_site_symmetry_multiplicity
 _atom_site_fract_x
 _atom_site_fract_y
 _atom_site_fract_z
 _atom_site_occupancy
  Mn  Mn0  1  0.25000900  0.49989800  0.99999800  1
  Mn  Mn1  1  0.74999200  0.50010100  0.00000200  1
  Mn  Mn2  1  0.74998600  0.99989700  0.99995500  1
  Mn  Mn3  1  0.25001300  0.00010200  0.00004500  1
  Ge  Ge4  1  0.25013200  0.40041300  0.50001100  1
  Ge  Ge5  1  0.75018600  0.90044000  0.50000900  1
  Ge  Ge6  1  0.89134900  0.24999600  0.78271400  1
  Ge  Ge7  1  0.39132400  0.74999000  0.78271300  1
  Ge  Ge8  1  0.60866600  0.25001000  0.21728700  1
  Ge  Ge9  1  0.10866100  0.75000400  0.21728600  1
  Ge  Ge10  1  0.24981400  0.09956100  0.49999100  1
  Ge  Ge11  1  0.74986800  0.59958700  0.49998800  1
loop_
 _atom_site_moment_label
 _atom_site_moment_crystalaxis_x
 _atom_site_moment_crystalaxis_y
 _atom_site_moment_crystalaxis_z
  Mn0  2.12881749  -3.70006830  -0.00054610
  Mn1  2.12881749  -3.70006830  -0.00054610
  Mn2  -2.12881749  3.70006830  0.00054610
  Mn3  -2.12881749  3.70006830  0.00054610
  Ge4  -0.06183494  0.10747446  0.00001586
  Ge5  0.06183494  -0.10747446  -0.00001586
  Ge10  0.06183494  -0.10747446  -0.00001586
  Ge11  -0.06183494  0.10747446  0.00001586
