# generated using pymatgen
data_LiVBi
_symmetry_space_group_name_H-M   'P 1'
_cell_length_a   4.55396545
_cell_length_b   4.55333213
_cell_length_c   7.81863445
_cell_angle_alpha   90.00037736
_cell_angle_beta   73.08262445
_cell_angle_gamma   60.00387789
_symmetry_Int_Tables_number   1
_chemical_formula_structural   LiVBi
_chemical_formula_sum   'Li2 V2 Bi2'
_cell_volume   132.24671424
_cell_formula_units_Z   2
loop_
 _symmetry_equiv_pos_site_id
 _symmetry_equiv_pos_as_xyz
  1  'x, y, z'
loop_
 _atom_site_type_symbol
 _atom_site_label
 _atom_site_symmetry_multiplicity
 _atom_site_fract_x
 _atom_site_fract_y
 _atom_site_fract_z
 _atom_site_occupancy
  Li  Li0  1  0.75013500  0.12492900  0.37477600  1
  Li  Li1  1  0.75013100  0.62493000  0.87478100  1
  V  V2  1  0.49963900  0.25018200  0.75057700  1
  V  V3  1  0.49963700  0.75018600  0.25057300  1
  Bi  Bi4  1  0.00022500  0.99988800  0.99965300  1
  Bi  Bi5  1  0.00023300  0.49988400  0.49964100  1
loop_
 _atom_site_moment_label
 _atom_site_moment_crystalaxis_x
 _atom_site_moment_crystalaxis_y
 _atom_site_moment_crystalaxis_z
  Li0  -0.00000317  0.00050159  0.00086695
  Li1  0.00000317  -0.00050159  -0.00086695
  V2  0.00899889  -1.42250573  -2.45866113
  V3  -0.00899889  1.42250573  2.45866113
  Bi4  0.00000635  -0.00100318  -0.00173389
  Bi5  -0.00000635  0.00100318  0.00173389
