# generated using pymatgen
data_CrSe2
_symmetry_space_group_name_H-M   'P 1'
_cell_length_a   3.53057259
_cell_length_b   24.66263098
_cell_length_c   5.63178344
_cell_angle_alpha   89.33424127
_cell_angle_beta   89.95537980
_cell_angle_gamma   94.14050979
_symmetry_Int_Tables_number   1
_chemical_formula_structural   CrSe2
_chemical_formula_sum   'Cr4 Se8'
_cell_volume   489.06390139
_cell_formula_units_Z   4
loop_
 _symmetry_equiv_pos_site_id
 _symmetry_equiv_pos_as_xyz
  1  'x, y, z'
loop_
 _atom_site_type_symbol
 _atom_site_label
 _atom_site_symmetry_multiplicity
 _atom_site_fract_x
 _atom_site_fract_y
 _atom_site_fract_z
 _atom_site_occupancy
  Cr  Cr0  1  0.50000000  0.00000000  0.50000000  1
  Cr  Cr1  1  0.75000000  0.50000000  0.25000000  1
  Cr  Cr2  1  0.25000000  0.50000000  0.75000000  1
  Cr  Cr3  1  0.00000000  0.00000000  0.00000000  1
  Se  Se4  1  0.28297800  0.56569100  0.40244500  1
  Se  Se5  1  0.53296500  0.06568800  0.15244200  1
  Se  Se6  1  0.78297800  0.56569100  0.90244400  1
  Se  Se7  1  0.03296500  0.06568900  0.65244300  1
  Se  Se8  1  0.46703500  0.93431200  0.84755800  1
  Se  Se9  1  0.71702200  0.43430800  0.59755700  1
  Se  Se10  1  0.96703500  0.93431200  0.34755700  1
  Se  Se11  1  0.21702200  0.43430800  0.09755500  1
loop_
 _atom_site_moment_label
 _atom_site_moment_crystalaxis_x
 _atom_site_moment_crystalaxis_y
 _atom_site_moment_crystalaxis_z
  Cr0  -0.21817997  -3.03285797  0.32951737
  Cr1  -0.21825176  -3.03385595  0.32962580
  Cr2  0.21825176  3.03385595  -0.32962580
  Cr3  0.21817997  3.03285797  -0.32951737
  Se4  0.00416401  0.05788278  -0.00628891
  Se5  -0.00416401  -0.05788278  0.00628891
  Se6  -0.00416401  -0.05788278  0.00628891
  Se7  0.00416401  0.05788278  -0.00628891
  Se8  -0.00416401  -0.05788278  0.00628891
  Se9  -0.00416401  -0.05788278  0.00628891
  Se10  0.00416401  0.05788278  -0.00628891
  Se11  0.00416401  0.05788278  -0.00628891
