# generated using pymatgen
data_K(VS2)2
_symmetry_space_group_name_H-M   'P 1'
_cell_length_a   3.63362300
_cell_length_b   6.00533391
_cell_length_c   7.89405714
_cell_angle_alpha   104.41545898
_cell_angle_beta   89.99968232
_cell_angle_gamma   89.99879141
_symmetry_Int_Tables_number   1
_chemical_formula_structural   K(VS2)2
_chemical_formula_sum   'K1 V2 S4'
_cell_volume   166.83382371
_cell_formula_units_Z   1
loop_
 _symmetry_equiv_pos_site_id
 _symmetry_equiv_pos_as_xyz
  1  'x, y, z'
loop_
 _atom_site_type_symbol
 _atom_site_label
 _atom_site_symmetry_multiplicity
 _atom_site_fract_x
 _atom_site_fract_y
 _atom_site_fract_z
 _atom_site_occupancy
  K  K0  1  0.49995600  0.34485700  0.49530000  1
  V  V1  1  0.00010800  0.99590300  0.99563000  1
  V  V2  1  0.49980900  0.50057600  0.00187300  1
  S  S3  1  0.99994000  0.59590700  0.82036500  1
  S  S4  1  0.50011700  0.11359500  0.82176300  1
  S  S5  1  0.99993700  0.39728400  0.17736000  1
  S  S6  1  0.50013300  0.88187800  0.17770800  1
loop_
 _atom_site_moment_label
 _atom_site_moment_crystalaxis_x
 _atom_site_moment_crystalaxis_y
 _atom_site_moment_crystalaxis_z
  K0  0.00000000  -0.00002399  -0.00100570
  V1  -0.00000959  0.04620523  1.93698289
  V2  -0.00000613  0.02950801  1.23701400
  S3  0.00000030  -0.00146341  -0.06134785
  S4  0.00000041  -0.00199119  -0.08347330
  S5  0.00000029  -0.00141543  -0.05933644
  S6  0.00000042  -0.00201518  -0.08447900
