# generated using pymatgen
data_Li2Fe3S4
_symmetry_space_group_name_H-M   'P 1'
_cell_length_a   6.18343319
_cell_length_b   7.34918655
_cell_length_c   7.36413148
_cell_angle_alpha   98.41367543
_cell_angle_beta   90.05841537
_cell_angle_gamma   89.63266103
_symmetry_Int_Tables_number   1
_chemical_formula_structural   Li2Fe3S4
_chemical_formula_sum   'Li4 Fe6 S8'
_cell_volume   331.04123610
_cell_formula_units_Z   2
loop_
 _symmetry_equiv_pos_site_id
 _symmetry_equiv_pos_as_xyz
  1  'x, y, z'
loop_
 _atom_site_type_symbol
 _atom_site_label
 _atom_site_symmetry_multiplicity
 _atom_site_fract_x
 _atom_site_fract_y
 _atom_site_fract_z
 _atom_site_occupancy
  Li  Li0  1  0.40708000  0.73370500  0.49564100  1
  Li  Li1  1  0.91198400  0.50477400  0.25523400  1
  Li  Li2  1  0.08998900  0.49722400  0.73567800  1
  Li  Li3  1  0.58787500  0.25600800  0.50559500  1
  Fe  Fe4  1  0.62816200  0.31173300  0.93789600  1
  Fe  Fe5  1  0.87080300  0.93833800  0.31473700  1
  Fe  Fe6  1  0.24946700  0.18911200  0.18684900  1
  Fe  Fe7  1  0.75152300  0.80446200  0.80853700  1
  Fe  Fe8  1  0.12843700  0.06548300  0.68377100  1
  Fe  Fe9  1  0.37463300  0.68781700  0.06426800  1
  S  S10  1  0.00375000  0.76132600  0.54978000  1
  S  S11  1  0.50388200  0.44769200  0.23876700  1
  S  S12  1  0.49672600  0.54979600  0.76185200  1
  S  S13  1  0.99533500  0.23968200  0.44748900  1
  S  S14  1  0.01013100  0.26577100  0.94967400  1
  S  S15  1  0.50652100  0.04637800  0.74926000  1
  S  S16  1  0.48905800  0.95021100  0.26719300  1
  S  S17  1  0.99464500  0.75048700  0.04777900  1
loop_
 _atom_site_moment_label
 _atom_site_moment_crystalaxis_x
 _atom_site_moment_crystalaxis_y
 _atom_site_moment_crystalaxis_z
  Li0  0.00001711  -0.00006670  -0.00100742
  Li1  -0.00005133  0.00020011  0.00302227
  Li2  0.00001711  -0.00006670  -0.00100742
  Li3  -0.00005133  0.00020011  0.00302227
  Fe4  0.06073923  -0.23679996  -3.57635396
  Fe5  0.06073923  -0.23679996  -3.57635396
  Fe6  -0.06212511  0.24220300  3.65795528
  Fe7  -0.06193690  0.24146925  3.64687362
  Fe8  -0.06154338  0.23993505  3.62370287
  Fe9  -0.06152627  0.23986835  3.62269545
  S10  -0.00037641  0.00146749  0.02216332
  S11  -0.00059884  0.00233465  0.03525983
  S12  -0.00039352  0.00153420  0.02317074
  S13  -0.00059884  0.00233465  0.03525983
  S14  -0.00044485  0.00173431  0.02619301
  S15  -0.00039352  0.00153420  0.02317074
  S16  -0.00044485  0.00173431  0.02619301
  S17  -0.00042774  0.00166761  0.02518559
