# generated using pymatgen
data_KCuS3
_symmetry_space_group_name_H-M   'P 1'
_cell_length_a   3.39997074
_cell_length_b   16.42951160
_cell_length_c   8.04019287
_cell_angle_alpha   75.87821166
_cell_angle_beta   87.13239143
_cell_angle_gamma   89.42306777
_symmetry_Int_Tables_number   1
_chemical_formula_structural   KCuS3
_chemical_formula_sum   'K4 Cu4 S12'
_cell_volume   435.00474107
_cell_formula_units_Z   4
loop_
 _symmetry_equiv_pos_site_id
 _symmetry_equiv_pos_as_xyz
  1  'x, y, z'
loop_
 _atom_site_type_symbol
 _atom_site_label
 _atom_site_symmetry_multiplicity
 _atom_site_fract_x
 _atom_site_fract_y
 _atom_site_fract_z
 _atom_site_occupancy
  K  K0  1  0.00059700  0.74942900  0.62508800  1
  K  K1  1  0.00080100  0.24922700  0.37507300  1
  K  K2  1  0.00046500  0.74947200  0.12500200  1
  K  K3  1  0.00072100  0.24920800  0.87527600  1
  Cu  Cu4  1  0.99836400  0.05241300  0.22442800  1
  Cu  Cu5  1  0.99763600  0.55255800  0.97419800  1
  Cu  Cu6  1  0.99964100  0.55300900  0.47262200  1
  Cu  Cu7  1  0.00109800  0.05280000  0.72398200  1
  S  S8  1  0.49997800  0.64741200  0.42606900  1
  S  S9  1  0.49964700  0.14681100  0.17654300  1
  S  S10  1  0.49866000  0.64707300  0.92636100  1
  S  S11  1  0.50169300  0.14714100  0.67640200  1
  S  S12  1  0.50006100  0.93500800  0.28253600  1
  S  S13  1  0.50004000  0.43534100  0.03238000  1
  S  S14  1  0.50034900  0.93517300  0.78245700  1
  S  S15  1  0.50016900  0.43549700  0.53254400  1
  S  S16  1  0.00003700  0.94461100  0.52813700  1
  S  S17  1  0.00024100  0.44460500  0.27793000  1
  S  S18  1  0.99969000  0.94461500  0.02750700  1
  S  S19  1  0.00011000  0.44460200  0.77746700  1
loop_
 _atom_site_moment_label
 _atom_site_moment_crystalaxis_x
 _atom_site_moment_crystalaxis_y
 _atom_site_moment_crystalaxis_z
  Cu4  -0.00047460  -0.44752528  0.10937309
  Cu5  -0.00047241  -0.44546295  0.10886907
  Cu6  0.00047350  0.44649412  -0.10912108
  Cu7  0.00047460  0.44752528  -0.10937309
  S8  0.00017387  0.16395512  -0.04006987
  S9  -0.00017387  -0.16395512  0.04006987
  S10  -0.00017278  -0.16292395  0.03981785
  S11  0.00017497  0.16498628  -0.04032188
  S12  -0.00011045  -0.10414759  0.02545319
  S13  -0.00011154  -0.10517875  0.02570520
  S14  0.00011045  0.10414759  -0.02545319
  S15  0.00011154  0.10517875  -0.02570520
