# generated using pymatgen
data_LiMnAs
_symmetry_space_group_name_H-M   'P 1'
_cell_length_a   6.15893539
_cell_length_b   7.54521328
_cell_length_c   6.15893429
_cell_angle_alpha   65.92104168
_cell_angle_beta   90.00584986
_cell_angle_gamma   65.92104611
_symmetry_Int_Tables_number   1
_chemical_formula_structural   LiMnAs
_chemical_formula_sum   'Li4 Mn4 As4'
_cell_volume   233.75483198
_cell_formula_units_Z   4
loop_
 _symmetry_equiv_pos_site_id
 _symmetry_equiv_pos_as_xyz
  1  'x, y, z'
loop_
 _atom_site_type_symbol
 _atom_site_label
 _atom_site_symmetry_multiplicity
 _atom_site_fract_x
 _atom_site_fract_y
 _atom_site_fract_z
 _atom_site_occupancy
  Li  Li0  1  0.00000200  0.99999600  0.50000300  1
  Li  Li1  1  0.74999900  0.50000600  0.74999800  1
  Li  Li2  1  0.49999800  0.00000500  0.00000000  1
  Li  Li3  1  0.25000500  0.49999500  0.25000400  1
  Mn  Mn4  1  0.50000000  0.99999900  0.49999600  1
  Mn  Mn5  1  0.24999500  0.50000000  0.75000000  1
  Mn  Mn6  1  0.75000000  0.49999600  0.25000300  1
  Mn  Mn7  1  0.99999900  0.00000000  0.99999600  1
  As  As8  1  0.37500100  0.75000100  0.37498100  1
  As  As9  1  0.12498200  0.25000100  0.62500100  1
  As  As10  1  0.87500300  0.75000000  0.87501500  1
  As  As11  1  0.62501600  0.25000100  0.12500200  1
loop_
 _atom_site_moment_label
 _atom_site_moment_crystalaxis_x
 _atom_site_moment_crystalaxis_y
 _atom_site_moment_crystalaxis_z
  Mn4  1.59761167  -3.91528919  -1.59976205
  Mn5  1.59761167  -3.91528919  -1.59976205
  Mn6  -1.59761167  3.91528919  1.59976205
  Mn7  -1.59761167  3.91528919  1.59976205
