# generated using pymatgen
data_Rb(V3S4)2
_symmetry_space_group_name_H-M   'P 1'
_cell_length_a   3.68853209
_cell_length_b   9.67307066
_cell_length_c   9.70755029
_cell_angle_alpha   59.57306067
_cell_angle_beta   89.90188536
_cell_angle_gamma   90.19827451
_symmetry_Int_Tables_number   1
_chemical_formula_structural   Rb(V3S4)2
_chemical_formula_sum   'Rb1 V6 S8'
_cell_volume   298.65348644
_cell_formula_units_Z   1
loop_
 _symmetry_equiv_pos_site_id
 _symmetry_equiv_pos_as_xyz
  1  'x, y, z'
loop_
 _atom_site_type_symbol
 _atom_site_label
 _atom_site_symmetry_multiplicity
 _atom_site_fract_x
 _atom_site_fract_y
 _atom_site_fract_z
 _atom_site_occupancy
  Rb  Rb0  1  0.50373400  0.99979600  0.99784200  1
  V  V1  1  0.26233400  0.86125500  0.48337300  1
  V  V2  1  0.74680300  0.34357700  0.13380400  1
  V  V3  1  0.73307100  0.13310900  0.52331600  1
  V  V4  1  0.25789400  0.48005700  0.65546000  1
  V  V5  1  0.25445000  0.65451200  0.86589900  1
  V  V6  1  0.73879300  0.52598300  0.34133000  1
  S  S7  1  0.24303200  0.33399700  0.33241200  1
  S  S8  1  0.75726700  0.66589500  0.66720500  1
  S  S9  1  0.24851900  0.34993900  0.96704800  1
  S  S10  1  0.24037300  0.96514100  0.68291700  1
  S  S11  1  0.24516600  0.68534000  0.35053800  1
  S  S12  1  0.75388200  0.63331800  0.04982900  1
  S  S13  1  0.75984000  0.04940900  0.31927100  1
  S  S14  1  0.75484300  0.31867300  0.62975500  1
loop_
 _atom_site_moment_label
 _atom_site_moment_crystalaxis_x
 _atom_site_moment_crystalaxis_y
 _atom_site_moment_crystalaxis_z
  V1  0.00240335  0.00799438  -2.56604242
  V2  0.00181236  0.00602855  -1.93504838
  V3  0.00190336  0.00633123  -2.03220143
  V4  -0.00243524  -0.00810048  2.60009606
  V5  -0.00244556  -0.00813480  2.61111342
  V6  -0.00194932  -0.00648412  2.08127874
  S7  -0.00001595  -0.00005305  0.01702682
  S8  0.00000844  0.00002808  -0.00901420
  S9  -0.00001501  -0.00004993  0.01602525
  S10  -0.00004878  -0.00016226  0.05208205
  S11  0.00004597  0.00015290  -0.04907731
  S12  0.00003565  0.00011857  -0.03805996
  S13  -0.00007974  -0.00026523  0.08513412
  S14  0.00003752  0.00012481  -0.04006311
