# generated using pymatgen
data_Be5(Al2Fe)2
_symmetry_space_group_name_H-M   'P 1'
_cell_length_a   4.53275506
_cell_length_b   8.07667847
_cell_length_c   7.62426082
_cell_angle_alpha   72.31025315
_cell_angle_beta   89.23514785
_cell_angle_gamma   89.13704925
_symmetry_Int_Tables_number   1
_chemical_formula_structural   Be5(Al2Fe)2
_chemical_formula_sum   'Be10 Al8 Fe4'
_cell_volume   265.88174207
_cell_formula_units_Z   2
loop_
 _symmetry_equiv_pos_site_id
 _symmetry_equiv_pos_as_xyz
  1  'x, y, z'
loop_
 _atom_site_type_symbol
 _atom_site_label
 _atom_site_symmetry_multiplicity
 _atom_site_fract_x
 _atom_site_fract_y
 _atom_site_fract_z
 _atom_site_occupancy
  Be  Be0  1  0.00029000  0.99935300  0.00006700  1
  Be  Be1  1  0.49974900  0.00076600  0.49998900  1
  Be  Be2  1  0.74995300  0.99992800  0.25000200  1
  Be  Be3  1  0.25020600  0.00029100  0.75004300  1
  Be  Be4  1  0.24992100  0.00001600  0.25004500  1
  Be  Be5  1  0.74999600  0.99963500  0.75026300  1
  Be  Be6  1  0.24992700  0.49984900  0.25016300  1
  Be  Be7  1  0.75004000  0.49990900  0.74968900  1
  Be  Be8  1  0.75002000  0.49986200  0.25003300  1
  Be  Be9  1  0.24979900  0.50055500  0.74938600  1
  Al  Al10  1  0.00035500  0.18767600  0.43667100  1
  Al  Al11  1  0.50093200  0.18688600  0.93682300  1
  Al  Al12  1  0.99909200  0.81351700  0.56290200  1
  Al  Al13  1  0.49955900  0.81230900  0.06337900  1
  Al  Al14  1  0.00237400  0.68283400  0.94095700  1
  Al  Al15  1  0.50175500  0.68310700  0.44103300  1
  Al  Al16  1  0.99834800  0.31691000  0.05893300  1
  Al  Al17  1  0.49769600  0.31674000  0.55940500  1
  Fe  Fe18  1  0.50146600  0.74616300  0.75627300  1
  Fe  Fe19  1  0.99851200  0.25385500  0.74384600  1
  Fe  Fe20  1  0.00126900  0.74585300  0.25680200  1
  Fe  Fe21  1  0.49873800  0.25398600  0.24329500  1
loop_
 _atom_site_moment_label
 _atom_site_moment_crystalaxis_x
 _atom_site_moment_crystalaxis_y
 _atom_site_moment_crystalaxis_z
  Be2  0.00024741  -0.03324747  0.00083710
  Be3  -0.00024741  0.03324747  -0.00083710
  Be4  0.00027740  -0.03727747  0.00093857
  Be5  -0.00027740  0.03727747  -0.00093857
  Be6  0.00037487  -0.05037495  0.00126834
  Be7  -0.00037487  0.05037495  -0.00126834
  Be8  0.00031489  -0.04231496  0.00106540
  Be9  -0.00031489  0.04231496  -0.00106540
  Al10  0.00008997  -0.01208999  0.00030440
  Al11  -0.00008997  0.01208999  -0.00030440
  Al12  -0.00008997  0.01208999  -0.00030440
  Al13  0.00008997  -0.01208999  0.00030440
  Al14  -0.00023992  0.03223997  -0.00081174
  Al15  0.00023992  -0.03223997  0.00081174
  Al16  0.00023992  -0.03223997  0.00081174
  Al17  -0.00023992  0.03223997  -0.00081174
  Fe18  0.01963566  -2.63864008  0.06643555
  Fe19  0.01962816  -2.63763258  0.06641018
  Fe20  -0.01963566  2.63864008  -0.06643555
  Fe21  -0.01962816  2.63763258  -0.06641018
