# generated using pymatgen
data_BePRu2
_symmetry_space_group_name_H-M   'P 1'
_cell_length_a   9.06549596
_cell_length_b   15.44144597
_cell_length_c   9.09692791
_cell_angle_alpha   88.04683109
_cell_angle_beta   60.73902188
_cell_angle_gamma   105.59501765
_symmetry_Int_Tables_number   1
_chemical_formula_structural   BePRu2
_chemical_formula_sum   'Be2 P2 Ru4'
_cell_volume   1049.08668429
_cell_formula_units_Z   2
loop_
 _symmetry_equiv_pos_site_id
 _symmetry_equiv_pos_as_xyz
  1  'x, y, z'
loop_
 _atom_site_type_symbol
 _atom_site_label
 _atom_site_symmetry_multiplicity
 _atom_site_fract_x
 _atom_site_fract_y
 _atom_site_fract_z
 _atom_site_occupancy
  Be  Be0  1  0.00002900  0.99996200  0.00021200  1
  Be  Be1  1  0.99979000  0.50009400  0.50006100  1
  P  P2  1  0.00007400  0.25037800  0.74959100  1
  P  P3  1  0.00006600  0.74964600  0.25025600  1
  Ru  Ru4  1  0.00017100  0.62426200  0.37564500  1
  Ru  Ru5  1  0.99987000  0.87502200  0.12499600  1
  Ru  Ru6  1  0.99991500  0.12493300  0.87509200  1
  Ru  Ru7  1  0.00008600  0.37570200  0.62414700  1
loop_
 _atom_site_moment_label
 _atom_site_moment_crystalaxis_x
 _atom_site_moment_crystalaxis_y
 _atom_site_moment_crystalaxis_z
  P2  0.38766308  0.32911596  -0.19363479
  P3  -0.38866479  -0.32996639  0.19413514
  Ru4  -2.53433485  -2.15158497  1.26588122
  Ru5  -2.54134685  -2.15753797  1.26938365
  Ru6  2.54234856  2.15838840  -1.26988400
  Ru7  2.53533657  2.15243540  -1.26638156
