# generated using pymatgen
data_VTe2
_symmetry_space_group_name_H-M   'P 1'
_cell_length_a   3.81470680
_cell_length_b   13.30619963
_cell_length_c   10.58699131
_cell_angle_alpha   79.81973492
_cell_angle_beta   99.13759589
_cell_angle_gamma   82.18874118
_symmetry_Int_Tables_number   1
_chemical_formula_structural   VTe2
_chemical_formula_sum   'V6 Te12'
_cell_volume   514.72671087
_cell_formula_units_Z   6
loop_
 _symmetry_equiv_pos_site_id
 _symmetry_equiv_pos_as_xyz
  1  'x, y, z'
loop_
 _atom_site_type_symbol
 _atom_site_label
 _atom_site_symmetry_multiplicity
 _atom_site_fract_x
 _atom_site_fract_y
 _atom_site_fract_z
 _atom_site_occupancy
  V  V0  1  0.00055000  0.50009500  0.50001700  1
  V  V1  1  0.66618300  0.50285800  0.81545900  1
  V  V2  1  0.33388100  0.49710500  0.18446100  1
  V  V3  1  0.99987800  0.00003600  0.00000600  1
  V  V4  1  0.66807500  0.00326900  0.31535300  1
  V  V5  1  0.33157300  0.99666300  0.68468100  1
  Te  Te6  1  0.63336400  0.36766400  0.64010200  1
  Te  Te7  1  0.63292900  0.86829400  0.13974500  1
  Te  Te8  1  0.36670300  0.13174400  0.86021100  1
  Te  Te9  1  0.36727800  0.63233800  0.35984500  1
  Te  Te10  1  0.29761400  0.88706100  0.47599900  1
  Te  Te11  1  0.29577900  0.38711300  0.97637800  1
  Te  Te12  1  0.70425600  0.61282300  0.02351600  1
  Te  Te13  1  0.70211000  0.11285100  0.52401700  1
  Te  Te14  1  0.96136000  0.36673300  0.32478000  1
  Te  Te15  1  0.95925300  0.86646000  0.82496800  1
  Te  Te16  1  0.04044100  0.13355800  0.17516300  1
  Te  Te17  1  0.03877300  0.63333300  0.67529800  1
loop_
 _atom_site_moment_label
 _atom_site_moment_crystalaxis_x
 _atom_site_moment_crystalaxis_y
 _atom_site_moment_crystalaxis_z
  V0  0.04584678  -1.65632832  -1.08836135
  V1  0.04492384  -1.62298463  -1.06645145
  V2  0.04494530  -1.62376007  -1.06696098
  V3  -0.04571800  1.65167571  1.08530415
  V4  -0.04498823  1.62531094  1.06798005
  V5  -0.04498823  1.62531094  1.06798005
  Te6  -0.00386349  0.13957823  0.09171584
  Te7  0.00384203  -0.13880279  -0.09120631
  Te8  0.00384203  -0.13880279  -0.09120631
  Te9  -0.00386349  0.13957823  0.09171584
  Te10  0.00298347  -0.10778541  -0.07082501
  Te11  -0.00296201  0.10700998  0.07031548
  Te12  -0.00296201  0.10700998  0.07031548
  Te13  0.00298347  -0.10778541  -0.07082501
  Te14  -0.00414252  0.14965888  0.09833977
  Te15  0.00412106  -0.14888344  -0.09783023
  Te16  0.00412106  -0.14888344  -0.09783023
  Te17  -0.00414252  0.14965888  0.09833977
