# generated using pymatgen
data_Mg2MnGe2
_symmetry_space_group_name_H-M   'P 1'
_cell_length_a   9.07582900
_cell_length_b   36.30331600
_cell_length_c   29.26424400
_cell_angle_alpha   90.00000000
_cell_angle_beta   90.00000000
_cell_angle_gamma   90.00000000
_symmetry_Int_Tables_number   1
_chemical_formula_structural   Mg2MnGe2
_chemical_formula_sum   'Mg8 Mn4 Ge8'
_cell_volume   9642.06177977
_cell_formula_units_Z   4
loop_
 _symmetry_equiv_pos_site_id
 _symmetry_equiv_pos_as_xyz
  1  'x, y, z'
loop_
 _atom_site_type_symbol
 _atom_site_label
 _atom_site_symmetry_multiplicity
 _atom_site_fract_x
 _atom_site_fract_y
 _atom_site_fract_z
 _atom_site_occupancy
  Mg  Mg0  1  0.50000000  0.12500000  0.66286000  1
  Mg  Mg1  1  0.50000000  0.37500000  0.66286000  1
  Mg  Mg2  1  0.50000000  0.62500000  0.66286000  1
  Mg  Mg3  1  0.50000000  0.87500000  0.66286000  1
  Mg  Mg4  1  0.50000000  0.12500000  0.33714000  1
  Mg  Mg5  1  0.50000000  0.37500000  0.33714000  1
  Mg  Mg6  1  0.50000000  0.62500000  0.33714000  1
  Mg  Mg7  1  0.50000000  0.87500000  0.33714000  1
  Mn  Mn8  1  0.50000000  0.62500000  0.00000000  1
  Mn  Mn9  1  0.50000000  0.87500000  0.00000000  1
  Mn  Mn10  1  0.50000000  0.12500000  0.00000000  1
  Mn  Mn11  1  0.50000000  0.37500000  0.00000000  1
  Ge  Ge12  1  0.50000000  0.12500000  0.24887800  1
  Ge  Ge13  1  0.50000000  0.37500000  0.24887800  1
  Ge  Ge14  1  0.50000000  0.62500000  0.24887800  1
  Ge  Ge15  1  0.50000000  0.87500000  0.24887800  1
  Ge  Ge16  1  0.50000000  0.12500000  0.75112200  1
  Ge  Ge17  1  0.50000000  0.37500000  0.75112200  1
  Ge  Ge18  1  0.50000000  0.62500000  0.75112200  1
  Ge  Ge19  1  0.50000000  0.87500000  0.75112200  1
loop_
 _atom_site_moment_label
 _atom_site_moment_crystalaxis_x
 _atom_site_moment_crystalaxis_y
 _atom_site_moment_crystalaxis_z
  Mg0  0.00000000  0.00000000  -0.00600000
  Mg1  0.00000000  0.00000000  -0.00600000
  Mg2  0.00000000  0.00000000  -0.00600000
  Mg3  0.00000000  0.00000000  -0.00600000
  Mg4  0.00000000  0.00000000  -0.00600000
  Mg5  0.00000000  0.00000000  -0.00600000
  Mg6  0.00000000  0.00000000  -0.00600000
  Mg7  0.00000000  0.00000000  -0.00600000
  Mn8  0.00000000  0.00000000  -4.75800000
  Mn9  0.00000000  0.00000000  -4.75800000
  Mn10  0.00000000  0.00000000  4.75700000
  Mn11  0.00000000  0.00000000  4.75700000
  Ge12  0.00000000  0.00000000  0.70700000
  Ge13  0.00000000  0.00000000  0.70700000
  Ge14  0.00000000  0.00000000  0.70700000
  Ge15  0.00000000  0.00000000  0.70700000
  Ge16  0.00000000  0.00000000  0.70700000
  Ge17  0.00000000  0.00000000  0.70700000
  Ge18  0.00000000  0.00000000  0.70700000
  Ge19  0.00000000  0.00000000  0.70700000
