# generated using pymatgen
data_KFeAs2
_symmetry_space_group_name_H-M   'P 1'
_cell_length_a   6.78882059
_cell_length_b   9.36626378
_cell_length_c   9.20193613
_cell_angle_alpha   59.62988650
_cell_angle_beta   74.15595318
_cell_angle_gamma   96.06519120
_symmetry_Int_Tables_number   1
_chemical_formula_structural   KFeAs2
_chemical_formula_sum   'K4 Fe4 As8'
_cell_volume   464.23923333
_cell_formula_units_Z   4
loop_
 _symmetry_equiv_pos_site_id
 _symmetry_equiv_pos_as_xyz
  1  'x, y, z'
loop_
 _atom_site_type_symbol
 _atom_site_label
 _atom_site_symmetry_multiplicity
 _atom_site_fract_x
 _atom_site_fract_y
 _atom_site_fract_z
 _atom_site_occupancy
  K  K0  1  0.96653200  0.47015200  0.77276000  1
  K  K1  1  0.96652900  0.47017900  0.27278700  1
  K  K2  1  0.00363600  0.02203000  0.48427100  1
  K  K3  1  0.00337400  0.02182600  0.98450400  1
  Fe  Fe4  1  0.49941900  0.37582400  0.22281600  1
  Fe  Fe5  1  0.49106900  0.87125100  0.47651000  1
  Fe  Fe6  1  0.49931800  0.37576400  0.72286400  1
  Fe  Fe7  1  0.49099300  0.87115500  0.97658800  1
  As  As8  1  0.35053700  0.42917200  0.47683000  1
  As  As9  1  0.35055600  0.42920800  0.97681500  1
  As  As10  1  0.33762200  0.74302900  0.32127000  1
  As  As11  1  0.33760600  0.74304900  0.82124600  1
  As  As12  1  0.66226300  0.67013000  0.39351400  1
  As  As13  1  0.66233600  0.67023500  0.89331700  1
  As  As14  1  0.68912100  0.16854500  0.22693000  1
  As  As15  1  0.68909000  0.16845300  0.72698000  1
loop_
 _atom_site_moment_label
 _atom_site_moment_crystalaxis_x
 _atom_site_moment_crystalaxis_y
 _atom_site_moment_crystalaxis_z
  K0  0.00100248  0.00066514  -0.00035385
  K1  -0.00100248  -0.00066514  0.00035385
  Fe4  -3.52071353  -2.33597130  1.24271741
  Fe5  -3.53474826  -2.34528325  1.24767130
  Fe6  3.52071353  2.33597130  -1.24271741
  Fe7  3.53474826  2.34528325  -1.24767130
  As8  0.01202977  0.00798168  -0.00424619
  As9  -0.01202977  -0.00798168  0.00424619
  As10  -0.01202977  -0.00798168  0.00424619
  As11  0.01202977  0.00798168  -0.00424619
  As12  0.00400992  0.00266056  -0.00141540
  As13  -0.00400992  -0.00266056  0.00141540
  As14  -0.00400992  -0.00266056  0.00141540
  As15  0.00400992  0.00266056  -0.00141540
