# generated using pymatgen
data_MnGa4
_symmetry_space_group_name_H-M   'P 1'
_cell_length_a   5.98732039
_cell_length_b   9.81977010
_cell_length_c   8.27647782
_cell_angle_alpha   63.65799114
_cell_angle_beta   89.95031790
_cell_angle_gamma   73.10789461
_symmetry_Int_Tables_number   1
_chemical_formula_structural   MnGa4
_chemical_formula_sum   'Mn4 Ga16'
_cell_volume   412.58426952
_cell_formula_units_Z   4
loop_
 _symmetry_equiv_pos_site_id
 _symmetry_equiv_pos_as_xyz
  1  'x, y, z'
loop_
 _atom_site_type_symbol
 _atom_site_label
 _atom_site_symmetry_multiplicity
 _atom_site_fract_x
 _atom_site_fract_y
 _atom_site_fract_z
 _atom_site_occupancy
  Mn  Mn0  1  0.50158600  0.99750800  0.50009800  1
  Mn  Mn1  1  0.74841300  0.50249100  0.24990200  1
  Mn  Mn2  1  0.24841000  0.50249900  0.74991200  1
  Mn  Mn3  1  0.00158700  0.99751000  0.00008700  1
  Ga  Ga4  1  0.37499900  0.74999400  0.62499900  1
  Ga  Ga5  1  0.62499800  0.24999600  0.37500200  1
  Ga  Ga6  1  0.87500000  0.75000000  0.12500000  1
  Ga  Ga7  1  0.12500200  0.25000100  0.87500000  1
  Ga  Ga8  1  0.00239000  0.49746300  0.50094700  1
  Ga  Ga9  1  0.24761200  0.00253800  0.24905200  1
  Ga  Ga10  1  0.50238100  0.49746500  0.00094300  1
  Ga  Ga11  1  0.74762200  0.00253500  0.74905400  1
  Ga  Ga12  1  0.62500100  0.25000200  0.87499900  1
  Ga  Ga13  1  0.87500400  0.75000000  0.62499600  1
  Ga  Ga14  1  0.12500300  0.24999900  0.37500000  1
  Ga  Ga15  1  0.37499500  0.74999900  0.12500200  1
  Ga  Ga16  1  0.50091000  0.49703900  0.50207200  1
  Ga  Ga17  1  0.74908900  0.00296000  0.24793100  1
  Ga  Ga18  1  0.00092400  0.49704700  0.00207100  1
  Ga  Ga19  1  0.24907500  0.00295300  0.74793200  1
loop_
 _atom_site_moment_label
 _atom_site_moment_crystalaxis_x
 _atom_site_moment_crystalaxis_y
 _atom_site_moment_crystalaxis_z
  Mn0  -1.13963215  -3.81664009  1.65150494
  Mn1  -1.13992140  -3.81760878  1.65192411
  Mn2  1.13963215  3.81664009  -1.65150494
  Mn3  1.13963215  3.81664009  -1.65150494
  Ga5  0.03152789  0.10558725  -0.04568884
  Ga7  -0.03152789  -0.10558725  0.04568884
  Ga8  -0.00028925  -0.00096869  0.00041916
  Ga9  -0.00028925  -0.00096869  0.00041916
  Ga10  0.00057849  0.00193738  -0.00083833
  Ga11  0.00057849  0.00193738  -0.00083833
  Ga12  -0.02776769  -0.09299428  0.04023971
  Ga14  0.02776769  0.09299428  -0.04023971
  Ga16  0.00028925  0.00096869  -0.00041916
  Ga17  0.00028925  0.00096869  -0.00041916
  Ga18  -0.00028925  -0.00096869  0.00041916
  Ga19  -0.00028925  -0.00096869  0.00041916
