# generated using pymatgen
data_K(CrS2)2
_symmetry_space_group_name_H-M   'P 1'
_cell_length_a   3.62849516
_cell_length_b   29.39071000
_cell_length_c   3.62467405
_cell_angle_alpha   90.00037678
_cell_angle_beta   119.98411446
_cell_angle_gamma   90.00041068
_symmetry_Int_Tables_number   1
_chemical_formula_structural   K(CrS2)2
_chemical_formula_sum   'K2 Cr4 S8'
_cell_volume   334.81562106
_cell_formula_units_Z   2
loop_
 _symmetry_equiv_pos_site_id
 _symmetry_equiv_pos_as_xyz
  1  'x, y, z'
loop_
 _atom_site_type_symbol
 _atom_site_label
 _atom_site_symmetry_multiplicity
 _atom_site_fract_x
 _atom_site_fract_y
 _atom_site_fract_z
 _atom_site_occupancy
  K  K0  1  0.00029400  0.99997500  0.00017000  1
  K  K1  1  0.00029500  0.50001800  0.00016500  1
  Cr  Cr2  1  0.33258800  0.62469200  0.66628900  1
  Cr  Cr3  1  0.33260200  0.87527600  0.66629700  1
  Cr  Cr4  1  0.33255800  0.12472200  0.66627700  1
  Cr  Cr5  1  0.33257300  0.37531200  0.66628100  1
  S  S6  1  0.00009700  0.16487000  0.00004500  1
  S  S7  1  0.00009800  0.66485800  0.00004600  1
  S  S8  1  0.00008200  0.33517300  0.00003400  1
  S  S9  1  0.00011000  0.83511800  0.00004700  1
  S  S10  1  0.66716100  0.07865300  0.33357600  1
  S  S11  1  0.66717800  0.57866900  0.33359300  1
  S  S12  1  0.66716900  0.42134000  0.33357600  1
  S  S13  1  0.66719400  0.92132400  0.33360500  1
loop_
 _atom_site_moment_label
 _atom_site_moment_crystalaxis_x
 _atom_site_moment_crystalaxis_y
 _atom_site_moment_crystalaxis_z
  Cr2  -0.00002167  -3.11600000  -0.00002100
  Cr3  -0.00002176  -3.12900000  -0.00002109
  Cr4  0.00002175  3.12800000  0.00002108
  Cr5  0.00002174  3.12600000  0.00002107
  S6  -0.00000226  -0.32500000  -0.00000219
  S7  0.00000232  0.33300000  0.00000224
  S8  -0.00000228  -0.32800000  -0.00000221
  S9  0.00000227  0.32600000  0.00000220
  S10  -0.00000145  -0.20800000  -0.00000140
  S11  0.00000148  0.21300000  0.00000144
  S12  -0.00000146  -0.21000000  -0.00000142
  S13  0.00000145  0.20800000  0.00000140
