# generated using pymatgen
data_K(CoS)2
_symmetry_space_group_name_H-M   'P 1'
_cell_length_a   3.71988289
_cell_length_b   13.55638669
_cell_length_c   3.69810061
_cell_angle_alpha   89.99970432
_cell_angle_beta   89.88276217
_cell_angle_gamma   89.99939874
_symmetry_Int_Tables_number   1
_chemical_formula_structural   K(CoS)2
_chemical_formula_sum   'K2 Co4 S4'
_cell_volume   186.48805898
_cell_formula_units_Z   2
loop_
 _symmetry_equiv_pos_site_id
 _symmetry_equiv_pos_as_xyz
  1  'x, y, z'
loop_
 _atom_site_type_symbol
 _atom_site_label
 _atom_site_symmetry_multiplicity
 _atom_site_fract_x
 _atom_site_fract_y
 _atom_site_fract_z
 _atom_site_occupancy
  K  K0  1  0.99999900  0.99971200  0.99999500  1
  K  K1  1  0.50000500  0.50027000  0.50000400  1
  Co  Co2  1  0.50000200  0.75049600  0.99999900  1
  Co  Co3  1  0.99999300  0.74950900  0.50000300  1
  Co  Co4  1  0.99998500  0.25051000  0.50000800  1
  Co  Co5  1  0.50001600  0.24949200  0.99999100  1
  S  S6  1  0.49998700  0.14664800  0.49999000  1
  S  S7  1  0.00000200  0.64665400  0.00000200  1
  S  S8  1  0.00001600  0.35335600  0.00000700  1
  S  S9  1  0.49999500  0.85335400  0.49999900  1
loop_
 _atom_site_moment_label
 _atom_site_moment_crystalaxis_x
 _atom_site_moment_crystalaxis_y
 _atom_site_moment_crystalaxis_z
  Co2  0.57940061  -1.97007424  0.57941377
  Co3  0.57912910  -1.96915105  0.57914226
  Co4  -0.57912910  1.96915105  -0.57914226
  Co5  -0.57967211  1.97099742  -0.57968529
  S6  -0.04588505  0.15601806  -0.04588610
  S7  0.04479902  -0.15232533  0.04480003
  S8  -0.04561354  0.15509488  -0.04561458
  S9  0.04479902  -0.15232533  0.04480003
