# generated using pymatgen
data_K3(FeSe)8
_symmetry_space_group_name_H-M   'P 1'
_cell_length_a   8.32077884
_cell_length_b   7.73288866
_cell_length_c   9.24549356
_cell_angle_alpha   68.76143235
_cell_angle_beta   63.50057841
_cell_angle_gamma   74.85334380
_symmetry_Int_Tables_number   1
_chemical_formula_structural   K3(FeSe)8
_chemical_formula_sum   'K3 Fe8 Se8'
_cell_volume   492.67519632
_cell_formula_units_Z   1
loop_
 _symmetry_equiv_pos_site_id
 _symmetry_equiv_pos_as_xyz
  1  'x, y, z'
loop_
 _atom_site_type_symbol
 _atom_site_label
 _atom_site_symmetry_multiplicity
 _atom_site_fract_x
 _atom_site_fract_y
 _atom_site_fract_z
 _atom_site_occupancy
  K  K0  1  0.49886700  0.99983300  0.00265300  1
  K  K1  1  0.77054700  0.99631700  0.46575800  1
  K  K2  1  0.23756900  0.99903300  0.53319900  1
  Fe  Fe3  1  0.93587300  0.50422600  0.37335200  1
  Fe  Fe4  1  0.55410800  0.49516700  0.62703700  1
  Fe  Fe5  1  0.43635100  0.49025400  0.38031500  1
  Fe  Fe6  1  0.32035700  0.50279800  0.12559200  1
  Fe  Fe7  1  0.05589000  0.49035000  0.64420600  1
  Fe  Fe8  1  0.81855100  0.50404100  0.10585900  1
  Fe  Fe9  1  0.17269400  0.51403500  0.87589800  1
  Fe  Fe10  1  0.70138100  0.49798000  0.86684200  1
  Se  Se11  1  0.16182300  0.70457500  0.33314300  1
  Se  Se12  1  0.83829200  0.28694800  0.67218400  1
  Se  Se13  1  0.66206500  0.70441500  0.31861600  1
  Se  Se14  1  0.33428000  0.28417000  0.68802500  1
  Se  Se15  1  0.90395800  0.73091000  0.81339700  1
  Se  Se16  1  0.08927500  0.29698600  0.17837600  1
  Se  Se17  1  0.41829100  0.71055300  0.81757000  1
  Se  Se18  1  0.58983000  0.28741200  0.17797500  1
loop_
 _atom_site_moment_label
 _atom_site_moment_crystalaxis_x
 _atom_site_moment_crystalaxis_y
 _atom_site_moment_crystalaxis_z
  K0  -0.00000588  -0.00000046  -0.00099719
  K2  0.00000588  0.00000046  0.00099719
  Fe3  -0.02096805  -0.00163710  -3.55300055
  Fe4  -0.02045017  -0.00159666  -3.46524752
  Fe5  -0.01853757  -0.00144733  -3.14115962
  Fe6  -0.02035601  -0.00158931  -3.44929242
  Fe7  0.01831982  0.00143033  3.10426346
  Fe8  0.01842575  0.00143860  3.12221294
  Fe9  0.01950858  0.00152315  3.30569655
  Fe10  0.01967336  0.00153601  3.33361797
  Se11  -0.00030602  -0.00002389  -0.05185406
  Se12  -0.00011770  -0.00000919  -0.01994387
  Se13  -0.00032367  -0.00002527  -0.05484564
  Se14  -0.00014124  -0.00001103  -0.02393264
  Se15  0.00022363  0.00001746  0.03789335
  Se16  -0.00011770  -0.00000919  -0.01994387
  Se17  -0.00008239  -0.00000643  -0.01396071
  Se18  -0.00010004  -0.00000781  -0.01695229
