# generated using pymatgen
data_Rb2MnP2
_symmetry_space_group_name_H-M   'P 1'
_cell_length_a   4.67487423
_cell_length_b   14.76650600
_cell_length_c   14.40857308
_cell_angle_alpha   78.09324146
_cell_angle_beta   116.29484479
_cell_angle_gamma   82.97817203
_symmetry_Int_Tables_number   1
_chemical_formula_structural   Rb2MnP2
_chemical_formula_sum   'Rb8 Mn4 P8'
_cell_volume   846.26857235
_cell_formula_units_Z   4
loop_
 _symmetry_equiv_pos_site_id
 _symmetry_equiv_pos_as_xyz
  1  'x, y, z'
loop_
 _atom_site_type_symbol
 _atom_site_label
 _atom_site_symmetry_multiplicity
 _atom_site_fract_x
 _atom_site_fract_y
 _atom_site_fract_z
 _atom_site_occupancy
  Rb  Rb0  1  0.16712800  0.66304700  0.65814500  1
  Rb  Rb1  1  0.27456100  0.36674700  0.84446700  1
  Rb  Rb2  1  0.16756600  0.16260600  0.65851400  1
  Rb  Rb3  1  0.27372000  0.86662700  0.84418500  1
  Rb  Rb4  1  0.33762400  0.58642300  0.34026300  1
  Rb  Rb5  1  0.22081100  0.38445500  0.15495400  1
  Rb  Rb6  1  0.33800700  0.08588800  0.34062100  1
  Rb  Rb7  1  0.22039900  0.88414000  0.15521500  1
  Mn  Mn8  1  0.45493100  0.58633000  0.96671300  1
  Mn  Mn9  1  0.04466000  0.16617400  0.03585200  1
  Mn  Mn10  1  0.45562800  0.08646500  0.96747100  1
  Mn  Mn11  1  0.04498400  0.66587600  0.03511200  1
  P  P12  1  0.61983000  0.55392000  0.16634500  1
  P  P13  1  0.63355800  0.20411900  0.09848300  1
  P  P14  1  0.62000400  0.05374200  0.16668000  1
  P  P15  1  0.63426000  0.70425000  0.09842100  1
  P  P16  1  0.88555100  0.69420400  0.83401400  1
  P  P17  1  0.85969500  0.54520800  0.90007100  1
  P  P18  1  0.88773700  0.19430200  0.83450500  1
  P  P19  1  0.85934700  0.04548000  0.89997000  1
loop_
 _atom_site_moment_label
 _atom_site_moment_crystalaxis_x
 _atom_site_moment_crystalaxis_y
 _atom_site_moment_crystalaxis_z
  Rb0  0.00095306  -0.00014449  0.00436465
  Rb2  -0.00071480  0.00010837  -0.00327349
  Rb4  0.00095306  -0.00014449  0.00436465
  Rb5  -0.00047653  0.00007225  -0.00218233
  Rb6  -0.00071480  0.00010837  -0.00327349
  Rb7  0.00047653  -0.00007225  0.00218233
  Mn8  -1.03955113  0.15760583  -4.76074424
  Mn9  -1.05694449  0.16024283  -4.84039914
  Mn10  1.03859807  -0.15746134  4.75637958
  Mn11  1.05646796  -0.16017058  4.83821681
  P12  0.01262806  -0.00191453  0.05783164
  P13  -0.00571837  0.00086696  -0.02618791
  P14  -0.01310459  0.00198678  -0.06001397
  P15  0.00500357  -0.00075859  0.02291442
  P16  0.00738622  -0.00111982  0.03382605
  P17  0.02168213  -0.00328722  0.09929583
  P18  -0.00810102  0.00122819  -0.03709954
  P19  -0.02263520  0.00343171  -0.10366049
