# generated using pymatgen
data_MnBe4Al
_symmetry_space_group_name_H-M   'P 1'
_cell_length_a   6.29850398
_cell_length_b   6.29830789
_cell_length_c   7.69063802
_cell_angle_alpha   114.18916882
_cell_angle_beta   114.18753840
_cell_angle_gamma   89.99018942
_symmetry_Int_Tables_number   1
_chemical_formula_structural   MnBe4Al
_chemical_formula_sum   'Mn4 Be16 Al4'
_cell_volume   248.65760606
_cell_formula_units_Z   4
loop_
 _symmetry_equiv_pos_site_id
 _symmetry_equiv_pos_as_xyz
  1  'x, y, z'
loop_
 _atom_site_type_symbol
 _atom_site_label
 _atom_site_symmetry_multiplicity
 _atom_site_fract_x
 _atom_site_fract_y
 _atom_site_fract_z
 _atom_site_occupancy
  Mn  Mn0  1  0.50001900  0.50005900  0.00001400  1
  Mn  Mn1  1  0.25007400  0.75002600  0.50001200  1
  Mn  Mn2  1  0.00000200  0.00005700  0.00000500  1
  Mn  Mn3  1  0.75007400  0.25001800  0.50001600  1
  Be  Be4  1  0.43861300  0.18703400  0.62527900  1
  Be  Be5  1  0.18831600  0.43667700  0.12535500  1
  Be  Be6  1  0.93855300  0.68701000  0.62534600  1
  Be  Be7  1  0.68841000  0.93682300  0.12542300  1
  Be  Be8  1  0.06159900  0.06151500  0.37468300  1
  Be  Be9  1  0.81152000  0.31159700  0.87466900  1
  Be  Be10  1  0.56167000  0.56144100  0.37473500  1
  Be  Be11  1  0.31144100  0.81168600  0.87473000  1
  Be  Be12  1  0.31295400  0.31320700  0.37458400  1
  Be  Be13  1  0.06319200  0.56294000  0.87457100  1
  Be  Be14  1  0.81291800  0.81335200  0.37464800  1
  Be  Be15  1  0.56334000  0.06290200  0.87463200  1
  Be  Be16  1  0.18667500  0.43831400  0.62534700  1
  Be  Be17  1  0.93704600  0.68861800  0.12528900  1
  Be  Be18  1  0.68681400  0.93840400  0.62541500  1
  Be  Be19  1  0.43701300  0.18855400  0.12535500  1
  Al  Al20  1  0.87500800  0.37482300  0.24999900  1
  Al  Al21  1  0.62494900  0.62498400  0.74994900  1
  Al  Al22  1  0.37500400  0.87498000  0.24999700  1
  Al  Al23  1  0.12479200  0.12497900  0.74995100  1
loop_
 _atom_site_moment_label
 _atom_site_moment_crystalaxis_x
 _atom_site_moment_crystalaxis_y
 _atom_site_moment_crystalaxis_z
  Mn0  -4.20847396  -1.40740708  -3.43680605
  Mn1  -4.20847396  -1.40740708  -3.43680605
  Mn2  4.20528652  1.40634113  3.43420307
  Mn3  4.20422405  1.40598582  3.43333540
  Be4  0.02443699  0.00817227  0.01995621
  Be5  0.02443699  0.00817227  0.01995621
  Be6  -0.02443699  -0.00817227  -0.01995621
  Be7  -0.02443699  -0.00817227  -0.01995621
  Be8  -0.02443699  -0.00817227  -0.01995621
  Be9  -0.02443699  -0.00817227  -0.01995621
  Be10  0.02443699  0.00817227  0.01995621
  Be11  0.02443699  0.00817227  0.01995621
  Be12  -0.02443699  -0.00817227  -0.01995621
  Be13  -0.02443699  -0.00817227  -0.01995621
  Be14  0.02443699  0.00817227  0.01995621
  Be15  0.02443699  0.00817227  0.01995621
  Be16  0.02443699  0.00817227  0.01995621
  Be17  0.02443699  0.00817227  0.01995621
  Be18  -0.02443699  -0.00817227  -0.01995621
  Be19  -0.02443699  -0.00817227  -0.01995621
