# generated using pymatgen
data_MgCo2Si
_symmetry_space_group_name_H-M   'P 1'
_cell_length_a   3.99007771
_cell_length_b   5.78249182
_cell_length_c   3.98844463
_cell_angle_alpha   89.99998751
_cell_angle_beta   89.99993122
_cell_angle_gamma   90.00000712
_symmetry_Int_Tables_number   1
_chemical_formula_structural   MgCo2Si
_chemical_formula_sum   'Mg2 Co4 Si2'
_cell_volume   92.02375445
_cell_formula_units_Z   2
loop_
 _symmetry_equiv_pos_site_id
 _symmetry_equiv_pos_as_xyz
  1  'x, y, z'
loop_
 _atom_site_type_symbol
 _atom_site_label
 _atom_site_symmetry_multiplicity
 _atom_site_fract_x
 _atom_site_fract_y
 _atom_site_fract_z
 _atom_site_occupancy
  Mg  Mg0  1  0.00000000  0.50000300  0.00000000  1
  Mg  Mg1  1  0.50000000  0.99999700  0.50000000  1
  Co  Co2  1  0.00000000  0.75011200  0.50000000  1
  Co  Co3  1  0.00000000  0.24988800  0.50000000  1
  Co  Co4  1  0.50000000  0.25011200  0.00000000  1
  Co  Co5  1  0.50000000  0.74988800  0.00000000  1
  Si  Si6  1  0.00000000  0.99999800  0.00000000  1
  Si  Si7  1  0.50000000  0.50000200  0.50000000  1
loop_
 _atom_site_moment_label
 _atom_site_moment_crystalaxis_x
 _atom_site_moment_crystalaxis_y
 _atom_site_moment_crystalaxis_z
  Co2  -0.26999988  -0.38183762  -0.26999982
  Co3  -0.31499986  -0.44547722  -0.31499979
  Co4  0.27049988  0.38254473  0.27049982
  Co5  0.31399986  0.44406301  0.31399979
  Si6  0.00050000  0.00070711  0.00050000
  Si7  -0.00050000  -0.00070711  -0.00050000
