# generated using pymatgen
data_LiMnP
_symmetry_space_group_name_H-M   'P 1'
_cell_length_a   4.08605100
_cell_length_b   4.08604600
_cell_length_c   6.38166300
_cell_angle_alpha   89.99885044
_cell_angle_beta   90.00260593
_cell_angle_gamma   90.00384212
_symmetry_Int_Tables_number   1
_chemical_formula_structural   LiMnP
_chemical_formula_sum   'Li2 Mn2 P2'
_cell_volume   106.54692007
_cell_formula_units_Z   2
loop_
 _symmetry_equiv_pos_site_id
 _symmetry_equiv_pos_as_xyz
  1  'x, y, z'
loop_
 _atom_site_type_symbol
 _atom_site_label
 _atom_site_symmetry_multiplicity
 _atom_site_fract_x
 _atom_site_fract_y
 _atom_site_fract_z
 _atom_site_occupancy
  Li  Li0  1  0.00000300  0.50000500  0.36651900  1
  Li  Li1  1  0.49999600  0.99999700  0.63348100  1
  Mn  Mn2  1  0.50007000  0.49996400  0.00004100  1
  Mn  Mn3  1  0.99993200  0.00003200  0.99995900  1
  P  P4  1  0.00000900  0.50002100  0.76128600  1
  P  P5  1  0.49999000  0.99998100  0.23871400  1
loop_
 _atom_site_moment_label
 _atom_site_moment_crystalaxis_x
 _atom_site_moment_crystalaxis_y
 _atom_site_moment_crystalaxis_z
  Mn2  -0.00009938  0.00004386  -4.37400000
  Mn3  0.00009938  -0.00004386  4.37400000
