# generated using pymatgen
data_RbV5S8
_symmetry_space_group_name_H-M   'P 1'
_cell_length_a   3.64285994
_cell_length_b   11.15307074
_cell_length_c   14.48134192
_cell_angle_alpha   87.46180068
_cell_angle_beta   97.16578237
_cell_angle_gamma   99.37192537
_symmetry_Int_Tables_number   1
_chemical_formula_structural   RbV5S8
_chemical_formula_sum   'Rb2 V10 S16'
_cell_volume   575.80322025
_cell_formula_units_Z   2
loop_
 _symmetry_equiv_pos_site_id
 _symmetry_equiv_pos_as_xyz
  1  'x, y, z'
loop_
 _atom_site_type_symbol
 _atom_site_label
 _atom_site_symmetry_multiplicity
 _atom_site_fract_x
 _atom_site_fract_y
 _atom_site_fract_z
 _atom_site_occupancy
  Rb  Rb0  1  0.49992100  0.99997400  0.99998200  1
  Rb  Rb1  1  0.49998400  0.49999100  0.50000700  1
  V  V2  1  0.00155900  0.75000800  0.24999600  1
  V  V3  1  0.29742800  0.37555100  0.21688000  1
  V  V4  1  0.70529600  0.12445300  0.28312300  1
  V  V5  1  0.33907400  0.60672200  0.07675700  1
  V  V6  1  0.65607900  0.89328300  0.42325100  1
  V  V7  1  0.00154800  0.25001400  0.74999600  1
  V  V8  1  0.29752400  0.87555800  0.71683500  1
  V  V9  1  0.70524800  0.62442300  0.78316500  1
  V  V10  1  0.33917100  0.10674300  0.57675700  1
  V  V11  1  0.65591400  0.39324700  0.92325400  1
  S  S12  1  0.17048100  0.16336500  0.17383200  1
  S  S13  1  0.17034900  0.66328200  0.67382900  1
  S  S14  1  0.83257400  0.83671200  0.82617400  1
  S  S15  1  0.83257300  0.33663600  0.32617300  1
  S  S16  1  0.23559800  0.56516700  0.90833500  1
  S  S17  1  0.23573300  0.06518300  0.40831500  1
  S  S18  1  0.76167600  0.43483400  0.09168500  1
  S  S19  1  0.76175100  0.93484100  0.59166600  1
  S  S20  1  0.08414100  0.24876200  0.92214800  1
  S  S21  1  0.08413700  0.74878100  0.42215100  1
  S  S22  1  0.91336300  0.75122700  0.07784200  1
  S  S23  1  0.91325600  0.25122800  0.57784000  1
  S  S24  1  0.42502700  0.59757100  0.24977800  1
  S  S25  1  0.42465200  0.09757900  0.74974500  1
  S  S26  1  0.57806200  0.40242200  0.75025500  1
  S  S27  1  0.57788400  0.90244000  0.25022300  1
loop_
 _atom_site_moment_label
 _atom_site_moment_crystalaxis_x
 _atom_site_moment_crystalaxis_y
 _atom_site_moment_crystalaxis_z
  V2  -0.02700097  -1.19760859  -1.52595172
  V3  -0.02736991  -1.21397268  -1.54680227
  V4  -0.02736991  -1.21397268  -1.54680227
  V5  -0.02717860  -1.20548760  -1.53599087
  V6  -0.02717860  -1.20548760  -1.53599087
  V7  0.02700097  1.19760859  1.52595172
  V8  0.02736991  1.21397268  1.54680227
  V9  0.02736991  1.21397268  1.54680227
  V10  0.02719227  1.20609367  1.53676312
  V11  0.02719227  1.20609367  1.53676312
  S12  0.00117514  0.05212264  0.06641288
  S13  -0.00117514  -0.05212264  -0.06641288
  S14  -0.00117514  -0.05212264  -0.06641288
  S15  0.00117514  0.05212264  0.06641288
  S16  -0.00027329  -0.01212154  -0.01544486
  S17  0.00027329  0.01212154  0.01544486
  S18  0.00027329  0.01212154  0.01544486
  S19  -0.00027329  -0.01212154  -0.01544486
  S20  -0.00120247  -0.05333480  -0.06795736
  S21  0.00120247  0.05333480  0.06795736
  S22  0.00120247  0.05333480  0.06795736
  S23  -0.00120247  -0.05333480  -0.06795736
  S24  0.00112049  0.04969833  0.06332391
  S25  -0.00112049  -0.04969833  -0.06332391
  S26  -0.00112049  -0.04969833  -0.06332391
  S27  0.00112049  0.04969833  0.06332391
