# generated using pymatgen
data_Mg(MoS2)2
_symmetry_space_group_name_H-M   'P 1'
_cell_length_a   7.51289900
_cell_length_b   7.51301376
_cell_length_c   7.42855253
_cell_angle_alpha   120.37741663
_cell_angle_beta   59.62298251
_cell_angle_gamma   90.00021312
_symmetry_Int_Tables_number   1
_chemical_formula_structural   Mg(MoS2)2
_chemical_formula_sum   'Mg2 Mo4 S8'
_cell_volume   293.07781190
_cell_formula_units_Z   2
loop_
 _symmetry_equiv_pos_site_id
 _symmetry_equiv_pos_as_xyz
  1  'x, y, z'
loop_
 _atom_site_type_symbol
 _atom_site_label
 _atom_site_symmetry_multiplicity
 _atom_site_fract_x
 _atom_site_fract_y
 _atom_site_fract_z
 _atom_site_occupancy
  Mg  Mg0  1  0.50001900  0.49999300  0.99998700  1
  Mg  Mg1  1  0.24999500  0.24999900  0.49999500  1
  Mo  Mo2  1  0.87499800  0.87500000  0.25000200  1
  Mo  Mo3  1  0.87499800  0.37500200  0.25000200  1
  Mo  Mo4  1  0.87500000  0.87500000  0.75000200  1
  Mo  Mo5  1  0.37499700  0.87500200  0.75000300  1
  S  S6  1  0.64228700  0.63048400  0.26096900  1
  S  S7  1  0.65324600  0.11951800  0.23903800  1
  S  S8  1  0.11951100  0.65325200  0.76097300  1
  S  S9  1  0.11951300  0.10772300  0.76097100  1
  S  S10  1  0.63048800  0.09674700  0.73903000  1
  S  S11  1  0.63048300  0.64228100  0.73903300  1
  S  S12  1  0.10771100  0.11951700  0.23903300  1
  S  S13  1  0.09675400  0.63048200  0.26096200  1
loop_
 _atom_site_moment_label
 _atom_site_moment_crystalaxis_x
 _atom_site_moment_crystalaxis_y
 _atom_site_moment_crystalaxis_z
  Mo2  -2.61901206  0.00000720  0.00002385
  Mo3  -2.61901206  0.00000720  0.00002385
  Mo4  2.61901206  -0.00000720  -0.00002385
  Mo5  2.61901206  -0.00000720  -0.00002385
  S6  0.00500002  -0.00000001  -0.00000005
  S7  0.00500002  -0.00000001  -0.00000005
  S8  -0.00500002  0.00000001  0.00000005
  S9  -0.00500002  0.00000001  0.00000005
  S10  -0.00500002  0.00000001  0.00000005
  S11  -0.00500002  0.00000001  0.00000005
  S12  0.00500002  -0.00000001  -0.00000005
  S13  0.00500002  -0.00000001  -0.00000005
