# generated using pymatgen
data_BaFeS
_symmetry_space_group_name_H-M   'P 1'
_cell_length_a   3.97020134
_cell_length_b   3.95560656
_cell_length_c   20.48512414
_cell_angle_alpha   90.02820713
_cell_angle_beta   89.97223186
_cell_angle_gamma   89.36536707
_symmetry_Int_Tables_number   1
_chemical_formula_structural   BaFeS
_chemical_formula_sum   'Ba4 Fe4 S4'
_cell_volume   321.68993563
_cell_formula_units_Z   4
loop_
 _symmetry_equiv_pos_site_id
 _symmetry_equiv_pos_as_xyz
  1  'x, y, z'
loop_
 _atom_site_type_symbol
 _atom_site_label
 _atom_site_symmetry_multiplicity
 _atom_site_fract_x
 _atom_site_fract_y
 _atom_site_fract_z
 _atom_site_occupancy
  Ba  Ba0  1  0.49683800  0.99915700  0.09836100  1
  Ba  Ba1  1  0.49998700  0.99958100  0.59809700  1
  Ba  Ba2  1  0.99855000  0.49911700  0.40113400  1
  Ba  Ba3  1  0.99951300  0.50095100  0.90214900  1
  Fe  Fe4  1  0.50029200  0.49960500  0.75060300  1
  Fe  Fe5  1  0.00006200  0.00011500  0.74967500  1
  Fe  Fe6  1  0.50084000  0.49976300  0.25021300  1
  Fe  Fe7  1  0.00330100  0.00120200  0.24963000  1
  S  S8  1  0.50136700  0.99962100  0.32265300  1
  S  S9  1  0.49968200  0.00015500  0.82217400  1
  S  S10  1  0.99931100  0.50087600  0.17726500  1
  S  S11  1  0.00025700  0.49985600  0.67804700  1
loop_
 _atom_site_moment_label
 _atom_site_moment_crystalaxis_x
 _atom_site_moment_crystalaxis_y
 _atom_site_moment_crystalaxis_z
  Ba0  0.00000927  -0.00002756  -0.08700001
  Ba1  -0.00000906  0.00002693  0.08500001
  Ba2  0.00000927  -0.00002756  -0.08700001
  Ba3  -0.00000906  0.00002693  0.08500001
  Fe4  0.00033013  -0.00098137  -3.09800047
  Fe5  0.00032991  -0.00098074  -3.09600047
  Fe6  -0.00032991  0.00098074  3.09600047
  Fe7  -0.00033023  0.00098169  3.09900047
  S8  -0.00000394  0.00001172  0.03700001
  S9  0.00000405  -0.00001204  -0.03800001
  S10  -0.00000394  0.00001172  0.03700001
  S11  0.00000405  -0.00001204  -0.03800001
