# generated using pymatgen
data_K2MnBi2
_symmetry_space_group_name_H-M   'P 1'
_cell_length_a   4.37696162
_cell_length_b   16.14060191
_cell_length_c   20.95745025
_cell_angle_alpha   115.11109040
_cell_angle_beta   134.14310267
_cell_angle_gamma   91.27112582
_symmetry_Int_Tables_number   1
_chemical_formula_structural   K2MnBi2
_chemical_formula_sum   'K8 Mn4 Bi8'
_cell_volume   839.18072470
_cell_formula_units_Z   4
loop_
 _symmetry_equiv_pos_site_id
 _symmetry_equiv_pos_as_xyz
  1  'x, y, z'
loop_
 _atom_site_type_symbol
 _atom_site_label
 _atom_site_symmetry_multiplicity
 _atom_site_fract_x
 _atom_site_fract_y
 _atom_site_fract_z
 _atom_site_occupancy
  K  K0  1  0.65143900  0.11431800  0.34645100  1
  K  K1  1  0.45169400  0.34099700  0.28703200  1
  K  K2  1  0.64445300  0.61286400  0.34484700  1
  K  K3  1  0.46368300  0.84272700  0.29083800  1
  K  K4  1  0.54383200  0.15858800  0.71172300  1
  K  K5  1  0.35009400  0.38644900  0.65395900  1
  K  K6  1  0.53462100  0.65718800  0.70871500  1
  K  K7  1  0.35746100  0.88796400  0.65573100  1
  Mn  Mn8  1  0.48192000  0.58898300  0.99280900  1
  Mn  Mn9  1  0.51706900  0.90997300  0.00695300  1
  Mn  Mn10  1  0.47811300  0.08401200  0.99179900  1
  Mn  Mn11  1  0.52075300  0.41490100  0.00776600  1
  Bi  Bi12  1  0.60745600  0.10891100  0.87895000  1
  Bi  Bi13  1  0.48135300  0.38869600  0.84238000  1
  Bi  Bi14  1  0.59428300  0.60670800  0.87493600  1
  Bi  Bi15  1  0.48324200  0.88798500  0.84269200  1
  Bi  Bi16  1  0.51787400  0.11103900  0.15734000  1
  Bi  Bi17  1  0.39551100  0.39182200  0.12185000  1
  Bi  Bi18  1  0.51660800  0.61200700  0.15731000  1
  Bi  Bi19  1  0.40854100  0.89386500  0.12591900  1
loop_
 _atom_site_moment_label
 _atom_site_moment_crystalaxis_x
 _atom_site_moment_crystalaxis_y
 _atom_site_moment_crystalaxis_z
  K1  -0.00072533  -0.00039157  -0.00155668
  K3  0.00072533  0.00039157  0.00155668
  K4  -0.00072533  -0.00039157  -0.00155668
  K6  0.00072533  0.00039157  0.00155668
  Mn8  -3.29661481  -1.77966382  -7.07512853
  Mn9  -3.29734014  -1.78005539  -7.07668522
  Mn10  3.29298817  1.77770600  7.06734511
  Mn11  3.29371350  1.77809756  7.06890180
  Bi12  -0.12258040  -0.06617452  -0.26307959
  Bi13  -0.05439958  -0.02936739  -0.11675130
  Bi14  0.12258040  0.06617452  0.26307959
  Bi15  0.04859696  0.02623487  0.10429782
  Bi16  -0.05439958  -0.02936739  -0.11675130
  Bi17  -0.12258040  -0.06617452  -0.26307959
  Bi18  0.04932229  0.02662643  0.10585451
  Bi19  0.12258040  0.06617452  0.26307959
