# generated using pymatgen
data_CsMnTe2
_symmetry_space_group_name_H-M   'P 1'
_cell_length_a   4.83870864
_cell_length_b   14.25800119
_cell_length_c   10.35290940
_cell_angle_alpha   95.70918489
_cell_angle_beta   103.48787169
_cell_angle_gamma   80.32779320
_symmetry_Int_Tables_number   1
_chemical_formula_structural   CsMnTe2
_chemical_formula_sum   'Cs4 Mn4 Te8'
_cell_volume   683.32233831
_cell_formula_units_Z   4
loop_
 _symmetry_equiv_pos_site_id
 _symmetry_equiv_pos_as_xyz
  1  'x, y, z'
loop_
 _atom_site_type_symbol
 _atom_site_label
 _atom_site_symmetry_multiplicity
 _atom_site_fract_x
 _atom_site_fract_y
 _atom_site_fract_z
 _atom_site_occupancy
  Cs  Cs0  1  0.01253000  0.01717300  0.04195200  1
  Cs  Cs1  1  0.73866400  0.27573700  0.75022800  1
  Cs  Cs2  1  0.51241900  0.51714300  0.54157500  1
  Cs  Cs3  1  0.23898100  0.77591400  0.25057400  1
  Mn  Mn4  1  0.04243100  0.69674000  0.78394500  1
  Mn  Mn5  1  0.83015100  0.91168100  0.57283600  1
  Mn  Mn6  1  0.54171400  0.19690800  0.28382100  1
  Mn  Mn7  1  0.33020100  0.41168400  0.07241700  1
  Te  Te8  1  0.04512000  0.29307300  0.38609900  1
  Te  Te9  1  0.88744500  0.45215700  0.22801300  1
  Te  Te10  1  0.54586200  0.79282900  0.88640700  1
  Te  Te11  1  0.38795200  0.95200600  0.72853600  1
  Te  Te12  1  0.39860700  0.21858100  0.01472700  1
  Te  Te13  1  0.16930100  0.50973000  0.84665100  1
  Te  Te14  1  0.89898200  0.71860700  0.51491800  1
  Te  Te15  1  0.66963900  0.01003700  0.34730100  1
loop_
 _atom_site_moment_label
 _atom_site_moment_crystalaxis_x
 _atom_site_moment_crystalaxis_y
 _atom_site_moment_crystalaxis_z
  Cs1  -0.00012189  0.00038090  0.00093453
  Cs3  0.00012189  -0.00038090  -0.00093453
  Mn4  0.55948528  -1.74832079  -4.28948695
  Mn5  0.55924150  -1.74755899  -4.28761790
  Mn6  -0.55948528  1.74832079  4.28948695
  Mn7  -0.55924150  1.74755899  4.28761790
  Te8  0.00012189  -0.00038090  -0.00093453
  Te9  0.00012189  -0.00038090  -0.00093453
  Te10  -0.00012189  0.00038090  0.00093453
  Te11  -0.00012189  0.00038090  0.00093453
  Te12  0.00109703  -0.00342808  -0.00841076
  Te14  -0.00109703  0.00342808  0.00841076
