# generated using pymatgen
data_MgCo2Ge
_symmetry_space_group_name_H-M   'P 1'
_cell_length_a   9.99121628
_cell_length_b   13.83330172
_cell_length_c   9.93960442
_cell_angle_alpha   91.32005471
_cell_angle_beta   90.37075558
_cell_angle_gamma   90.01379518
_symmetry_Int_Tables_number   1
_chemical_formula_structural   MgCo2Ge
_chemical_formula_sum   'Mg2 Co4 Ge2'
_cell_volume   1373.37428135
_cell_formula_units_Z   2
loop_
 _symmetry_equiv_pos_site_id
 _symmetry_equiv_pos_as_xyz
  1  'x, y, z'
loop_
 _atom_site_type_symbol
 _atom_site_label
 _atom_site_symmetry_multiplicity
 _atom_site_fract_x
 _atom_site_fract_y
 _atom_site_fract_z
 _atom_site_occupancy
  Mg  Mg0  1  0.00083600  0.99986300  0.99981200  1
  Mg  Mg1  1  0.50052300  0.49988800  0.49979100  1
  Co  Co2  1  0.76810900  0.50021600  0.50052100  1
  Co  Co3  1  0.72542300  0.00002800  0.00002800  1
  Co  Co4  1  0.27057900  0.99983000  0.99967800  1
  Co  Co5  1  0.22641200  0.49918400  0.49754300  1
  Ge  Ge6  1  0.50408200  0.00019900  0.00049200  1
  Ge  Ge7  1  0.00403600  0.50079200  0.50213500  1
loop_
 _atom_site_moment_label
 _atom_site_moment_crystalaxis_x
 _atom_site_moment_crystalaxis_y
 _atom_site_moment_crystalaxis_z
  Mg0  -0.00048842  -0.00071895  -0.00051482
  Mg1  0.00146525  0.00215685  0.00154446
  Co2  -0.95876034  -1.41129588  -1.01059194
  Co3  -1.03593005  -1.52488974  -1.09193353
  Co4  1.02713856  1.51194867  1.08266676
  Co5  -0.96462133  -1.41992326  -1.01676978
  Ge6  0.16313090  0.24012880  0.17194993
  Ge7  0.17582971  0.25882146  0.18533525
