# generated using pymatgen
data_RbVSe2
_symmetry_space_group_name_H-M   'P 1'
_cell_length_a   6.25277375
_cell_length_b   7.98881434
_cell_length_c   12.71067046
_cell_angle_alpha   95.36113126
_cell_angle_beta   75.78358973
_cell_angle_gamma   113.04836344
_symmetry_Int_Tables_number   1
_chemical_formula_structural   RbVSe2
_chemical_formula_sum   'Rb4 V4 Se8'
_cell_volume   566.34832376
_cell_formula_units_Z   4
loop_
 _symmetry_equiv_pos_site_id
 _symmetry_equiv_pos_as_xyz
  1  'x, y, z'
loop_
 _atom_site_type_symbol
 _atom_site_label
 _atom_site_symmetry_multiplicity
 _atom_site_fract_x
 _atom_site_fract_y
 _atom_site_fract_z
 _atom_site_occupancy
  Rb  Rb0  1  0.32060600  0.00031500  0.35791300  1
  Rb  Rb1  1  0.67825700  0.99974400  0.64212900  1
  Rb  Rb2  1  0.92886900  0.50002400  0.14216800  1
  Rb  Rb3  1  0.57098500  0.50008300  0.85791500  1
  V  V4  1  0.24984600  0.50018700  0.49965900  1
  V  V5  1  0.49926100  0.99981800  0.00012800  1
  V  V6  1  0.75053800  0.49999900  0.49995800  1
  V  V7  1  0.99906500  0.00001100  0.99998500  1
  Se  Se8  1  0.95080400  0.30112900  0.39676200  1
  Se  Se9  1  0.04628000  0.69848900  0.60338300  1
  Se  Se10  1  0.34993100  0.30170200  0.60330100  1
  Se  Se11  1  0.65165400  0.69873400  0.39666200  1
  Se  Se12  1  0.30042300  0.19880800  0.10365500  1
  Se  Se13  1  0.20465700  0.80120500  0.89640100  1
  Se  Se14  1  0.90011000  0.19836400  0.89724700  1
  Se  Se15  1  0.59871500  0.80138700  0.10273400  1
loop_
 _atom_site_moment_label
 _atom_site_moment_crystalaxis_x
 _atom_site_moment_crystalaxis_y
 _atom_site_moment_crystalaxis_z
  V4  0.04526845  0.00291425  -1.84134331
  V5  -0.05048507  -0.00325008  2.05353525
  V6  -0.04526845  -0.00291425  1.84134331
  V7  -0.05115260  -0.00329305  2.08068777
  Se8  0.00007417  0.00000477  -0.00301695
  Se9  0.00007417  0.00000477  -0.00301695
  Se10  0.00004945  0.00000318  -0.00201130
  Se11  0.00004945  0.00000318  -0.00201130
  Se12  0.00170591  0.00010982  -0.06938978
  Se13  0.00170591  0.00010982  -0.06938978
  Se14  0.00202731  0.00013051  -0.08246322
  Se15  0.00202731  0.00013051  -0.08246322
