# generated using pymatgen
data_K(CrS2)2
_symmetry_space_group_name_H-M   'P 1'
_cell_length_a   3.51777000
_cell_length_b   5.92495701
_cell_length_c   7.77988897
_cell_angle_alpha   89.77349407
_cell_angle_beta   89.99810672
_cell_angle_gamma   90.00029683
_symmetry_Int_Tables_number   1
_chemical_formula_structural   K(CrS2)2
_chemical_formula_sum   'K1 Cr2 S4'
_cell_volume   162.15212694
_cell_formula_units_Z   1
loop_
 _symmetry_equiv_pos_site_id
 _symmetry_equiv_pos_as_xyz
  1  'x, y, z'
loop_
 _atom_site_type_symbol
 _atom_site_label
 _atom_site_symmetry_multiplicity
 _atom_site_fract_x
 _atom_site_fract_y
 _atom_site_fract_z
 _atom_site_occupancy
  K  K0  1  0.00000000  0.50000000  0.00000000  1
  Cr  Cr1  1  0.50000000  0.00000000  0.50000000  1
  Cr  Cr2  1  0.99999900  0.50000000  0.50000000  1
  S  S3  1  0.99999700  0.16260800  0.67645200  1
  S  S4  1  0.49999500  0.66301200  0.67640000  1
  S  S5  1  0.50000600  0.33698800  0.32360000  1
  S  S6  1  0.00000300  0.83739200  0.32354800  1
loop_
 _atom_site_moment_label
 _atom_site_moment_crystalaxis_x
 _atom_site_moment_crystalaxis_y
 _atom_site_moment_crystalaxis_z
  Cr1  -0.00005152  0.00267225  3.05998827
  Cr2  -0.00005159  0.00267574  3.06398826
  S3  0.00000396  -0.00020522  -0.23499910
  S4  0.00000360  -0.00018688  -0.21399918
  S5  0.00000360  -0.00018688  -0.21399918
  S6  0.00000396  -0.00020522  -0.23499910
