# generated using pymatgen
data_Cr3As
_symmetry_space_group_name_H-M   'P 1'
_cell_length_a   5.13749463
_cell_length_b   5.13712797
_cell_length_c   5.12740058
_cell_angle_alpha   87.98498173
_cell_angle_beta   87.99876191
_cell_angle_gamma   87.99072767
_symmetry_Int_Tables_number   1
_chemical_formula_structural   Cr3As
_chemical_formula_sum   'Cr6 As2'
_cell_volume   135.07845717
_cell_formula_units_Z   2
loop_
 _symmetry_equiv_pos_site_id
 _symmetry_equiv_pos_as_xyz
  1  'x, y, z'
loop_
 _atom_site_type_symbol
 _atom_site_label
 _atom_site_symmetry_multiplicity
 _atom_site_fract_x
 _atom_site_fract_y
 _atom_site_fract_z
 _atom_site_occupancy
  Cr  Cr0  1  0.01566400  0.48425200  0.75000500  1
  Cr  Cr1  1  0.75004900  0.01530000  0.48506900  1
  Cr  Cr2  1  0.48467800  0.74995300  0.01503200  1
  Cr  Cr3  1  0.98433700  0.51574800  0.24999600  1
  Cr  Cr4  1  0.24994700  0.98470000  0.51493100  1
  Cr  Cr5  1  0.51532400  0.25004500  0.98496700  1
  As  As6  1  0.00000100  0.00000100  0.00000100  1
  As  As7  1  0.50000100  0.50000000  0.50000000  1
loop_
 _atom_site_moment_label
 _atom_site_moment_crystalaxis_x
 _atom_site_moment_crystalaxis_y
 _atom_site_moment_crystalaxis_z
  Cr0  0.06666809  -3.90050649  0.06681681
  Cr1  0.06666809  -3.90050649  0.06681681
  Cr2  0.06666809  -3.90050649  0.06681681
  Cr3  -0.06666809  3.90050649  -0.06681681
  Cr4  -0.06666809  3.90050649  -0.06681681
  Cr5  -0.06666809  3.90050649  -0.06681681
