# generated using pymatgen
data_MgGaCo2
_symmetry_space_group_name_H-M   'P 1'
_cell_length_a   10.23059500
_cell_length_b   14.48406300
_cell_length_c   10.12201500
_cell_angle_alpha   90.00065929
_cell_angle_beta   89.99880634
_cell_angle_gamma   90.00087428
_symmetry_Int_Tables_number   1
_chemical_formula_structural   MgGaCo2
_chemical_formula_sum   'Mg2 Ga2 Co4'
_cell_volume   1499.88607857
_cell_formula_units_Z   2
loop_
 _symmetry_equiv_pos_site_id
 _symmetry_equiv_pos_as_xyz
  1  'x, y, z'
loop_
 _atom_site_type_symbol
 _atom_site_label
 _atom_site_symmetry_multiplicity
 _atom_site_fract_x
 _atom_site_fract_y
 _atom_site_fract_z
 _atom_site_occupancy
  Mg  Mg0  1  0.99994400  0.00000000  0.00000000  1
  Mg  Mg1  1  0.50005500  0.50000000  0.50000000  1
  Ga  Ga2  1  0.49999400  0.00000300  0.00000000  1
  Ga  Ga3  1  0.99995800  0.49999800  0.50000100  1
  Co  Co4  1  0.76435400  0.50000200  0.49999800  1
  Co  Co5  1  0.73569700  0.99999700  0.00000100  1
  Co  Co6  1  0.26434000  0.00000000  0.00000000  1
  Co  Co7  1  0.23565800  0.50000100  0.50000100  1
loop_
 _atom_site_moment_label
 _atom_site_moment_crystalaxis_x
 _atom_site_moment_crystalaxis_y
 _atom_site_moment_crystalaxis_z
  Co4  0.00002117  -0.00001978  -2.02200000
  Co5  0.00002116  -0.00001977  -2.02100000
  Co6  -0.00002116  0.00001977  2.02100000
  Co7  -0.00002117  0.00001978  2.02200000
