# generated using pymatgen
data_MgCo2Si
_symmetry_space_group_name_H-M   'P 1'
_cell_length_a   9.86180681
_cell_length_b   13.84666187
_cell_length_c   9.78905211
_cell_angle_alpha   90.17388508
_cell_angle_beta   89.99828681
_cell_angle_gamma   89.99865263
_symmetry_Int_Tables_number   1
_chemical_formula_structural   MgCo2Si
_chemical_formula_sum   'Mg2 Co4 Si2'
_cell_volume   1336.71929677
_cell_formula_units_Z   2
loop_
 _symmetry_equiv_pos_site_id
 _symmetry_equiv_pos_as_xyz
  1  'x, y, z'
loop_
 _atom_site_type_symbol
 _atom_site_label
 _atom_site_symmetry_multiplicity
 _atom_site_fract_x
 _atom_site_fract_y
 _atom_site_fract_z
 _atom_site_occupancy
  Mg  Mg0  1  0.99991100  0.00000000  0.99999800  1
  Mg  Mg1  1  0.50005100  0.50000000  0.49999800  1
  Co  Co2  1  0.77945500  0.49999900  0.49999900  1
  Co  Co3  1  0.72034900  0.99999900  0.99999500  1
  Co  Co4  1  0.27510800  0.99999800  0.99999700  1
  Co  Co5  1  0.22529700  0.50000100  0.50000600  1
  Si  Si6  1  0.50420000  0.00000200  0.00000800  1
  Si  Si7  1  0.99562900  0.50000200  0.49999800  1
loop_
 _atom_site_moment_label
 _atom_site_moment_crystalaxis_x
 _atom_site_moment_crystalaxis_y
 _atom_site_moment_crystalaxis_z
  Mg0  -0.00095374  -0.00143815  -0.00101531
  Mg1  0.00095374  0.00143815  0.00101531
  Co2  -0.87076068  -1.31303284  -0.92697482
  Co3  -0.96565738  -1.45612897  -1.02799782
  Co4  0.99474632  1.49999261  1.05896466
  Co5  0.92846169  1.40004104  0.98840086
  Si6  0.11111021  0.16754472  0.11828321
  Si7  -0.00906049  -0.01366244  -0.00964541
