# generated using pymatgen
data_Li2FeS2
_symmetry_space_group_name_H-M   'P 1'
_cell_length_a   3.58437036
_cell_length_b   4.50100374
_cell_length_c   11.96287836
_cell_angle_alpha   89.99572650
_cell_angle_beta   89.99955597
_cell_angle_gamma   89.99790294
_symmetry_Int_Tables_number   1
_chemical_formula_structural   Li2FeS2
_chemical_formula_sum   'Li4 Fe2 S4'
_cell_volume   193.00027893
_cell_formula_units_Z   2
loop_
 _symmetry_equiv_pos_site_id
 _symmetry_equiv_pos_as_xyz
  1  'x, y, z'
loop_
 _atom_site_type_symbol
 _atom_site_label
 _atom_site_symmetry_multiplicity
 _atom_site_fract_x
 _atom_site_fract_y
 _atom_site_fract_z
 _atom_site_occupancy
  Li  Li0  1  0.50000600  0.49996700  0.21735400  1
  Li  Li1  1  0.00000900  0.00004200  0.71735500  1
  Li  Li2  1  0.99999200  0.99995800  0.28264600  1
  Li  Li3  1  0.49999300  0.50003400  0.78264700  1
  Fe  Fe4  1  0.50000200  0.50000000  0.50000100  1
  Fe  Fe5  1  0.00000100  0.00000200  0.99999800  1
  S  S6  1  0.99999000  0.49991500  0.35973600  1
  S  S7  1  0.50000200  0.00004200  0.85971800  1
  S  S8  1  0.49999800  0.99995700  0.14027900  1
  S  S9  1  0.00000700  0.50008500  0.64026600  1
loop_
 _atom_site_moment_label
 _atom_site_moment_crystalaxis_x
 _atom_site_moment_crystalaxis_y
 _atom_site_moment_crystalaxis_z
  Li0  0.00054452  0.00074842  -0.00177301
  Li1  -0.00054452  -0.00074842  0.00177301
  Li2  -0.00054452  -0.00074842  0.00177301
  Li3  0.00054452  0.00074842  -0.00177301
  Fe4  0.98693629  1.35650895  -3.21357537
  Fe5  -0.98720855  -1.35688316  3.21446187
  S6  0.01688001  0.02320098  -0.05496322
  S7  -0.01688001  -0.02320098  0.05496322
  S8  -0.01688001  -0.02320098  0.05496322
  S9  0.01688001  0.02320098  -0.05496322
