# generated using pymatgen
data_Cr2Se3
_symmetry_space_group_name_H-M   'P 1'
_cell_length_a   7.02303129
_cell_length_b   7.41579554
_cell_length_c   8.77876645
_cell_angle_alpha   90.59943906
_cell_angle_beta   104.46153686
_cell_angle_gamma   104.90113757
_symmetry_Int_Tables_number   1
_chemical_formula_structural   Cr2Se3
_chemical_formula_sum   'Cr8 Se12'
_cell_volume   426.47060543
_cell_formula_units_Z   4
loop_
 _symmetry_equiv_pos_site_id
 _symmetry_equiv_pos_as_xyz
  1  'x, y, z'
loop_
 _atom_site_type_symbol
 _atom_site_label
 _atom_site_symmetry_multiplicity
 _atom_site_fract_x
 _atom_site_fract_y
 _atom_site_fract_z
 _atom_site_occupancy
  Cr  Cr0  1  0.49126200  0.24070800  0.01638400  1
  Cr  Cr1  1  0.81377300  0.56629600  0.33928200  1
  Cr  Cr2  1  0.17547500  0.90712300  0.67333500  1
  Cr  Cr3  1  0.50873900  0.75929400  0.98361500  1
  Cr  Cr4  1  0.82452800  0.09287700  0.32666500  1
  Cr  Cr5  1  0.18622500  0.43370400  0.66071900  1
  Cr  Cr6  1  0.82850700  0.32717000  0.82485700  1
  Cr  Cr7  1  0.17149100  0.67282800  0.17514200  1
  Se  Se8  1  0.77222200  0.07306300  0.02635600  1
  Se  Se9  1  0.10419000  0.40488500  0.36122400  1
  Se  Se10  1  0.44800100  0.74054800  0.69028100  1
  Se  Se11  1  0.22777800  0.92693800  0.97364500  1
  Se  Se12  1  0.55200000  0.25945100  0.30971800  1
  Se  Se13  1  0.89581000  0.59511500  0.63877700  1
  Se  Se14  1  0.56042400  0.76951400  0.29200300  1
  Se  Se15  1  0.90906500  0.10929400  0.63213600  1
  Se  Se16  1  0.22483800  0.43696900  0.97126600  1
  Se  Se17  1  0.43957500  0.23048600  0.70799700  1
  Se  Se18  1  0.77516200  0.56303200  0.02873400  1
  Se  Se19  1  0.09093500  0.89070400  0.36786500  1
loop_
 _atom_site_moment_label
 _atom_site_moment_crystalaxis_x
 _atom_site_moment_crystalaxis_y
 _atom_site_moment_crystalaxis_z
  Cr0  0.01254258  0.00508360  3.30516421
  Cr1  0.01247801  0.00505743  3.28814792
  Cr2  0.01245142  0.00504665  3.28114121
  Cr3  0.01254258  0.00508360  3.30516421
  Cr4  0.01245142  0.00504665  3.28114121
  Cr5  0.01247801  0.00505743  3.28814792
  Cr6  0.01298700  0.00526373  3.42227633
  Cr7  0.01298700  0.00526373  3.42227633
  Se8  -0.00098760  -0.00040028  -0.26024915
  Se9  -0.00100280  -0.00040644  -0.26425298
  Se10  -0.00103699  -0.00042030  -0.27326161
  Se11  -0.00098760  -0.00040028  -0.26024915
  Se12  -0.00103699  -0.00042030  -0.27326161
  Se13  -0.00100280  -0.00040644  -0.26425298
  Se14  -0.00091164  -0.00036949  -0.24022999
  Se15  -0.00088125  -0.00035718  -0.23222232
  Se16  -0.00083187  -0.00033716  -0.21920986
  Se17  -0.00091164  -0.00036949  -0.24022999
  Se18  -0.00083187  -0.00033716  -0.21920986
  Se19  -0.00088125  -0.00035718  -0.23222232
