# generated using pymatgen
data_CsMnBi
_symmetry_space_group_name_H-M   'P 1'
_cell_length_a   5.02116401
_cell_length_b   5.02170300
_cell_length_c   18.57001200
_cell_angle_alpha   90.00040896
_cell_angle_beta   89.99737955
_cell_angle_gamma   89.99555001
_symmetry_Int_Tables_number   1
_chemical_formula_structural   CsMnBi
_chemical_formula_sum   'Cs4 Mn4 Bi4'
_cell_volume   468.23903219
_cell_formula_units_Z   4
loop_
 _symmetry_equiv_pos_site_id
 _symmetry_equiv_pos_as_xyz
  1  'x, y, z'
loop_
 _atom_site_type_symbol
 _atom_site_label
 _atom_site_symmetry_multiplicity
 _atom_site_fract_x
 _atom_site_fract_y
 _atom_site_fract_z
 _atom_site_occupancy
  Cs  Cs0  1  0.99999700  0.50000000  0.17368400  1
  Cs  Cs1  1  0.99999700  0.50000100  0.67368900  1
  Cs  Cs2  1  0.50000300  0.00000000  0.32631600  1
  Cs  Cs3  1  0.50000300  0.99999900  0.82631100  1
  Mn  Mn4  1  0.99999800  0.00000300  0.49992500  1
  Mn  Mn5  1  0.50000000  0.49999700  0.00007500  1
  Mn  Mn6  1  0.00000300  0.99999700  0.99989400  1
  Mn  Mn7  1  0.49999700  0.50000300  0.50010600  1
  Bi  Bi8  1  0.00000200  0.50000100  0.41017600  1
  Bi  Bi9  1  0.00000400  0.50000000  0.91015700  1
  Bi  Bi10  1  0.49999700  0.99999900  0.08982400  1
  Bi  Bi11  1  0.49999600  0.00000100  0.58984300  1
loop_
 _atom_site_moment_label
 _atom_site_moment_crystalaxis_x
 _atom_site_moment_crystalaxis_y
 _atom_site_moment_crystalaxis_z
  Mn4  0.00010501  -0.00001635  -4.59900000
  Mn5  0.00010501  -0.00001635  -4.59900000
  Mn6  -0.00010501  0.00001635  4.59900000
  Mn7  -0.00010501  0.00001635  4.59900000
