# generated using pymatgen
data_LiFeS2
_symmetry_space_group_name_H-M   'P 1'
_cell_length_a   7.21450120
_cell_length_b   7.21447083
_cell_length_c   7.21447073
_cell_angle_alpha   90.28827092
_cell_angle_beta   120.16732679
_cell_angle_gamma   59.83392677
_symmetry_Int_Tables_number   1
_chemical_formula_structural   LiFeS2
_chemical_formula_sum   'Li4 Fe4 S8'
_cell_volume   264.84868060
_cell_formula_units_Z   4
loop_
 _symmetry_equiv_pos_site_id
 _symmetry_equiv_pos_as_xyz
  1  'x, y, z'
loop_
 _atom_site_type_symbol
 _atom_site_label
 _atom_site_symmetry_multiplicity
 _atom_site_fract_x
 _atom_site_fract_y
 _atom_site_fract_z
 _atom_site_occupancy
  Li  Li0  1  0.75000200  0.37500100  0.37500100  1
  Li  Li1  1  0.75000200  0.87499600  0.37500100  1
  Li  Li2  1  0.24999800  0.37500100  0.37500100  1
  Li  Li3  1  0.24999800  0.37500100  0.87499700  1
  Fe  Fe4  1  0.24998900  0.87500700  0.87500400  1
  Fe  Fe5  1  0.75001100  0.37498400  0.87500500  1
  Fe  Fe6  1  0.24998900  0.87500400  0.37498500  1
  Fe  Fe7  1  0.75001100  0.87500500  0.87500600  1
  S  S8  1  0.73786200  0.63118400  0.63095500  1
  S  S9  1  0.73785200  0.63094600  0.10690400  1
  S  S10  1  0.26214800  0.63094800  0.63120200  1
  S  S11  1  0.26213800  0.10690800  0.63095300  1
  S  S12  1  0.23786200  0.11904200  0.11881900  1
  S  S13  1  0.23787100  0.64309400  0.11903600  1
  S  S14  1  0.76212900  0.11883500  0.11903400  1
  S  S15  1  0.76213700  0.11904300  0.64309600  1
loop_
 _atom_site_moment_label
 _atom_site_moment_crystalaxis_x
 _atom_site_moment_crystalaxis_y
 _atom_site_moment_crystalaxis_z
  Li0  0.00000004  0.00800005  0.00002015
  Li1  -0.00000004  -0.00800005  -0.00002015
  Li2  -0.00000004  -0.00800005  -0.00002015
  Li3  0.00000004  0.00800005  0.00002015
  Fe4  -0.00002146  -3.98202707  -0.01002756
  Fe5  -0.00002146  -3.98202707  -0.01002756
  Fe6  0.00002146  3.98202707  0.01002756
  Fe7  0.00002146  3.98202707  0.01002756
  S8  0.00000045  0.08300056  0.00020901
  S9  -0.00000045  -0.08300056  -0.00020901
  S10  -0.00000045  -0.08300056  -0.00020901
  S11  0.00000045  0.08300056  0.00020901
  S12  -0.00000045  -0.08300056  -0.00020901
  S13  0.00000045  0.08300056  0.00020901
  S14  0.00000045  0.08300056  0.00020901
  S15  -0.00000045  -0.08300056  -0.00020901
