# generated using pymatgen
data_NiSe
_symmetry_space_group_name_H-M   'P 1'
_cell_length_a   6.29624992
_cell_length_b   7.01165134
_cell_length_c   6.20394020
_cell_angle_alpha   79.83786847
_cell_angle_beta   116.58375191
_cell_angle_gamma   78.03283482
_symmetry_Int_Tables_number   1
_chemical_formula_structural   NiSe
_chemical_formula_sum   'Ni6 Se6'
_cell_volume   227.97986840
_cell_formula_units_Z   6
loop_
 _symmetry_equiv_pos_site_id
 _symmetry_equiv_pos_as_xyz
  1  'x, y, z'
loop_
 _atom_site_type_symbol
 _atom_site_label
 _atom_site_symmetry_multiplicity
 _atom_site_fract_x
 _atom_site_fract_y
 _atom_site_fract_z
 _atom_site_occupancy
  Ni  Ni0  1  0.72814600  0.13742100  0.73127600  1
  Ni  Ni1  1  0.72702900  0.63794200  0.72751900  1
  Ni  Ni2  1  0.27621400  0.49652000  0.00808800  1
  Ni  Ni3  1  0.99738900  0.00323300  0.27066100  1
  Ni  Ni4  1  0.99856300  0.50125500  0.27038800  1
  Ni  Ni5  1  0.26859400  0.00012200  0.99214300  1
  Se  Se6  1  0.00304800  0.36318000  0.66749300  1
  Se  Se7  1  0.99587000  0.86331100  0.66227300  1
  Se  Se8  1  0.33418700  0.19361400  0.33857800  1
  Se  Se9  1  0.33436000  0.69672300  0.33193500  1
  Se  Se10  1  0.66871100  0.35961500  0.00082400  1
  Se  Se11  1  0.66788800  0.85906400  0.99882100  1
loop_
 _atom_site_moment_label
 _atom_site_moment_crystalaxis_x
 _atom_site_moment_crystalaxis_y
 _atom_site_moment_crystalaxis_z
  Ni0  1.51691575  -0.85645353  1.50002485
  Ni1  1.50176679  -0.84790040  1.48504457
  Ni2  1.54418387  -0.87184917  1.52698934
  Ni3  -1.50075686  0.84733019  -1.48404589
  Ni4  -1.51792568  0.85702374  -1.50102353
  Ni5  -1.54519381  0.87241938  -1.52798803
  Se6  0.04746674  -0.02679981  0.04693819
  Se7  0.02221847  -0.01254459  0.02197107
  Se8  -0.02221847  0.01254459  -0.02197107
  Se9  -0.04847667  0.02737002  -0.04793688
  Se10  0.01615889  -0.00912334  0.01597896
  Se11  -0.01413903  0.00798292  -0.01398159
