# generated using pymatgen
data_LiNi2Ge
_symmetry_space_group_name_H-M   'P 1'
_cell_length_a   4.02850597
_cell_length_b   4.03160278
_cell_length_c   4.01633525
_cell_angle_alpha   60.06504614
_cell_angle_beta   60.14297090
_cell_angle_gamma   59.79370088
_symmetry_Int_Tables_number   1
_chemical_formula_structural   LiNi2Ge
_chemical_formula_sum   'Li1 Ni2 Ge1'
_cell_volume   46.12469061
_cell_formula_units_Z   1
loop_
 _symmetry_equiv_pos_site_id
 _symmetry_equiv_pos_as_xyz
  1  'x, y, z'
loop_
 _atom_site_type_symbol
 _atom_site_label
 _atom_site_symmetry_multiplicity
 _atom_site_fract_x
 _atom_site_fract_y
 _atom_site_fract_z
 _atom_site_occupancy
  Li  Li0  1  0.50000000  0.50000000  0.50000000  1
  Ni  Ni1  1  0.24983500  0.24984100  0.25027100  1
  Ni  Ni2  1  0.75016700  0.75015700  0.74972900  1
  Ge  Ge3  1  0.99999900  0.00000100  0.00000000  1
loop_
 _atom_site_moment_label
 _atom_site_moment_crystalaxis_x
 _atom_site_moment_crystalaxis_y
 _atom_site_moment_crystalaxis_z
  Li0  -0.00000216  0.00000255  -0.00300020
  Ni1  0.00053304  -0.00062884  0.73904820
  Ni2  0.00053304  -0.00062884  0.73904820
  Ge3  0.00000866  -0.00001021  0.01200078
