# generated using pymatgen
data_CoTe2
_symmetry_space_group_name_H-M   'P 1'
_cell_length_a   6.37947541
_cell_length_b   6.37821216
_cell_length_c   6.38240236
_cell_angle_alpha   90.00088076
_cell_angle_beta   89.96401035
_cell_angle_gamma   89.97873231
_symmetry_Int_Tables_number   1
_chemical_formula_structural   CoTe2
_chemical_formula_sum   'Co4 Te8'
_cell_volume   259.69763380
_cell_formula_units_Z   4
loop_
 _symmetry_equiv_pos_site_id
 _symmetry_equiv_pos_as_xyz
  1  'x, y, z'
loop_
 _atom_site_type_symbol
 _atom_site_label
 _atom_site_symmetry_multiplicity
 _atom_site_fract_x
 _atom_site_fract_y
 _atom_site_fract_z
 _atom_site_occupancy
  Co  Co0  1  0.50000000  0.50000000  0.00000000  1
  Co  Co1  1  0.00000000  0.00000000  0.00000000  1
  Co  Co2  1  0.50000000  0.00000000  0.50000000  1
  Co  Co3  1  0.00000000  0.50000000  0.50000000  1
  Te  Te4  1  0.86874900  0.36876200  0.13166900  1
  Te  Te5  1  0.36879400  0.13122000  0.86831200  1
  Te  Te6  1  0.13169400  0.86820500  0.36887700  1
  Te  Te7  1  0.63164100  0.63182600  0.63115800  1
  Te  Te8  1  0.13125100  0.63123800  0.86833100  1
  Te  Te9  1  0.63120600  0.86878000  0.13168800  1
  Te  Te10  1  0.86830600  0.13179500  0.63112300  1
  Te  Te11  1  0.36835900  0.36817400  0.36884200  1
loop_
 _atom_site_moment_label
 _atom_site_moment_crystalaxis_x
 _atom_site_moment_crystalaxis_y
 _atom_site_moment_crystalaxis_z
  Co0  0.00020963  -1.11400005  -0.00013106
  Co1  0.00021019  -1.11700005  -0.00013141
  Co2  0.00020605  -1.09500005  -0.00012882
  Co3  0.00020624  -1.09600005  -0.00012894
  Te4  -0.00000809  0.04300000  0.00000506
  Te5  -0.00000809  0.04300000  0.00000506
  Te6  -0.00000809  0.04300000  0.00000506
  Te7  -0.00000790  0.04200000  0.00000494
  Te8  -0.00000809  0.04300000  0.00000506
  Te9  -0.00000809  0.04300000  0.00000506
  Te10  -0.00000809  0.04300000  0.00000506
  Te11  -0.00000790  0.04200000  0.00000494
