# generated using pymatgen
data_K2MnP2
_symmetry_space_group_name_H-M   'P 1'
_cell_length_a   3.78081870
_cell_length_b   13.44080863
_cell_length_c   13.18830449
_cell_angle_alpha   80.71431720
_cell_angle_beta   90.01195807
_cell_angle_gamma   90.01831676
_symmetry_Int_Tables_number   1
_chemical_formula_structural   K2MnP2
_chemical_formula_sum   'K8 Mn4 P8'
_cell_volume   661.41129299
_cell_formula_units_Z   4
loop_
 _symmetry_equiv_pos_site_id
 _symmetry_equiv_pos_as_xyz
  1  'x, y, z'
loop_
 _atom_site_type_symbol
 _atom_site_label
 _atom_site_symmetry_multiplicity
 _atom_site_fract_x
 _atom_site_fract_y
 _atom_site_fract_z
 _atom_site_occupancy
  K  K0  1  0.50003700  0.75674500  0.70621200  1
  K  K1  1  0.49997100  0.75605100  0.20609700  1
  K  K2  1  0.99997600  0.61182500  0.97502100  1
  K  K3  1  0.99997700  0.61112900  0.47588100  1
  K  K4  1  0.50012500  0.38872600  0.77336400  1
  K  K5  1  0.50012300  0.38857600  0.27487300  1
  K  K6  1  0.00016000  0.24430600  0.04362000  1
  K  K7  1  0.00002100  0.24234700  0.54364700  1
  Mn  Mn8  1  0.49982300  0.98902800  0.51830600  1
  Mn  Mn9  1  0.99953100  0.01089000  0.73230400  1
  Mn  Mn10  1  0.49915300  0.98974600  0.01887200  1
  Mn  Mn11  1  0.00110900  0.01060900  0.23223100  1
  P  P12  1  0.49996700  0.15308400  0.88558200  1
  P  P13  1  0.49985800  0.15222000  0.38493000  1
  P  P14  1  0.99983600  0.18252600  0.28744300  1
  P  P15  1  0.99997000  0.18266500  0.78792300  1
  P  P16  1  0.50006900  0.81733800  0.46221700  1
  P  P17  1  0.50012500  0.81823100  0.96230700  1
  P  P18  1  0.00008400  0.84727700  0.86462700  1
  P  P19  1  0.00008400  0.84668200  0.36454300  1
loop_
 _atom_site_moment_label
 _atom_site_moment_crystalaxis_x
 _atom_site_moment_crystalaxis_y
 _atom_site_moment_crystalaxis_z
  Mn8  -0.00050562  -4.60446550  1.39026086
  Mn9  -0.00050551  -4.60346235  1.38995797
  Mn10  0.00050562  4.60446550  -1.39026086
  Mn11  0.00050551  4.60346235  -1.38995797
  P12  -0.00000286  -0.02608194  0.00787512
  P13  0.00000275  0.02507879  -0.00757223
  P14  -0.00000463  -0.04213236  0.01272134
  P15  0.00000463  0.04213236  -0.01272134
  P16  0.00000463  0.04213236  -0.01272134
  P17  -0.00000463  -0.04213236  0.01272134
  P18  0.00000297  0.02708509  -0.00817801
  P19  -0.00000286  -0.02608194  0.00787512
