# generated using pymatgen
data_Co2As
_symmetry_space_group_name_H-M   'P 1'
_cell_length_a   5.98540603
_cell_length_b   7.10772751
_cell_length_c   5.98561819
_cell_angle_alpha   89.95697919
_cell_angle_beta   59.97220220
_cell_angle_gamma   89.96942080
_symmetry_Int_Tables_number   1
_chemical_formula_structural   Co2As
_chemical_formula_sum   'Co12 As6'
_cell_volume   220.46628329
_cell_formula_units_Z   6
loop_
 _symmetry_equiv_pos_site_id
 _symmetry_equiv_pos_as_xyz
  1  'x, y, z'
loop_
 _atom_site_type_symbol
 _atom_site_label
 _atom_site_symmetry_multiplicity
 _atom_site_fract_x
 _atom_site_fract_y
 _atom_site_fract_z
 _atom_site_occupancy
  Co  Co0  1  0.97072200  0.75002200  0.41886500  1
  Co  Co1  1  0.41955800  0.74999500  0.60985700  1
  Co  Co2  1  0.60908400  0.74995500  0.97268800  1
  Co  Co3  1  0.99973500  0.99964900  0.74678700  1
  Co  Co4  1  0.99994700  0.50047300  0.74674400  1
  Co  Co5  1  0.74686200  0.99964100  0.25332700  1
  Co  Co6  1  0.74703400  0.50028000  0.25336400  1
  Co  Co7  1  0.25329600  0.99977600  0.99965200  1
  Co  Co8  1  0.25339000  0.50014500  0.99966100  1
  Co  Co9  1  0.02944300  0.25007500  0.38944400  1
  Co  Co10  1  0.38979700  0.24993600  0.58089000  1
  Co  Co11  1  0.58088800  0.25003300  0.02945900  1
  As  As12  1  0.99994500  0.25000600  0.99981000  1
  As  As13  1  0.00034500  0.74997100  0.99984600  1
  As  As14  1  0.66670500  0.01165100  0.66646400  1
  As  As15  1  0.66677300  0.48838800  0.66654900  1
  As  As16  1  0.33317100  0.98838400  0.33330900  1
  As  As17  1  0.33330600  0.51162000  0.33328400  1
loop_
 _atom_site_moment_label
 _atom_site_moment_crystalaxis_x
 _atom_site_moment_crystalaxis_y
 _atom_site_moment_crystalaxis_z
  Co0  0.00015731  -1.48300033  0.00046371
  Co1  0.00015689  -1.47900033  0.00046246
  Co2  0.00015763  -1.48600033  0.00046465
  Co3  -0.00000064  0.00600000  -0.00000188
  Co4  -0.00000011  0.00100000  -0.00000031
  Co5  0.00000053  -0.00500000  0.00000156
  Co6  0.00000053  -0.00500000  0.00000156
  Co7  0.00000021  -0.00200000  0.00000063
  Co8  0.00000011  -0.00100000  0.00000031
  Co9  -0.00015699  1.48000033  -0.00046277
  Co10  -0.00015593  1.47000032  -0.00045964
  Co11  -0.00015805  1.49000033  -0.00046590
  As12  0.00000117  -0.01100000  0.00000344
  As13  -0.00000106  0.01000000  -0.00000313
  As14  -0.00000064  0.00600000  -0.00000188
  As15  -0.00000064  0.00600000  -0.00000188
  As16  0.00000053  -0.00500000  0.00000156
  As17  0.00000053  -0.00500000  0.00000156
