# generated using pymatgen
data_FeSe2
_symmetry_space_group_name_H-M   'P 1'
_cell_length_a   6.38319696
_cell_length_b   6.36555564
_cell_length_c   6.33168853
_cell_angle_alpha   89.84292120
_cell_angle_beta   90.02013079
_cell_angle_gamma   90.11105588
_symmetry_Int_Tables_number   1
_chemical_formula_structural   FeSe2
_chemical_formula_sum   'Fe4 Se8'
_cell_volume   257.27147287
_cell_formula_units_Z   4
loop_
 _symmetry_equiv_pos_site_id
 _symmetry_equiv_pos_as_xyz
  1  'x, y, z'
loop_
 _atom_site_type_symbol
 _atom_site_label
 _atom_site_symmetry_multiplicity
 _atom_site_fract_x
 _atom_site_fract_y
 _atom_site_fract_z
 _atom_site_occupancy
  Fe  Fe0  1  0.50000300  0.50000100  0.00000600  1
  Fe  Fe1  1  0.00000100  0.99999800  0.99999200  1
  Fe  Fe2  1  0.49999800  0.99999700  0.50000000  1
  Fe  Fe3  1  0.99999900  0.49999700  0.50000400  1
  Se  Se4  1  0.88917300  0.39068200  0.10805400  1
  Se  Se5  1  0.38945700  0.10910300  0.89174000  1
  Se  Se6  1  0.10871500  0.88950400  0.39194300  1
  Se  Se7  1  0.60862300  0.61085500  0.60822800  1
  Se  Se8  1  0.11083800  0.60932700  0.89195800  1
  Se  Se9  1  0.61053600  0.89089400  0.10824900  1
  Se  Se10  1  0.89127400  0.11048700  0.60804700  1
  Se  Se11  1  0.39138400  0.38915400  0.39178000  1
loop_
 _atom_site_moment_label
 _atom_site_moment_crystalaxis_x
 _atom_site_moment_crystalaxis_y
 _atom_site_moment_crystalaxis_z
  Fe0  -0.00353312  -3.59201498  0.00474577
  Fe1  -0.00353312  -3.59201498  0.00474577
  Fe2  0.00353116  3.59001498  -0.00474312
  Fe3  0.00353214  3.59101498  -0.00474444
  Se4  -0.00000885  -0.00900004  0.00001189
  Se5  -0.00000885  -0.00900004  0.00001189
  Se6  0.00000885  0.00900004  -0.00001189
  Se7  0.00000885  0.00900004  -0.00001189
  Se8  -0.00000885  -0.00900004  0.00001189
  Se9  -0.00000885  -0.00900004  0.00001189
  Se10  0.00000885  0.00900004  -0.00001189
  Se11  0.00000885  0.00900004  -0.00001189
