# generated using pymatgen
data_Sr(FeS2)2
_symmetry_space_group_name_H-M   'P 1'
_cell_length_a   5.86012951
_cell_length_b   6.10770261
_cell_length_c   6.10704844
_cell_angle_alpha   76.70300016
_cell_angle_beta   118.66323371
_cell_angle_gamma   118.66999822
_symmetry_Int_Tables_number   1
_chemical_formula_structural   Sr(FeS2)2
_chemical_formula_sum   'Sr1 Fe2 S4'
_cell_volume   168.28184967
_cell_formula_units_Z   1
loop_
 _symmetry_equiv_pos_site_id
 _symmetry_equiv_pos_as_xyz
  1  'x, y, z'
loop_
 _atom_site_type_symbol
 _atom_site_label
 _atom_site_symmetry_multiplicity
 _atom_site_fract_x
 _atom_site_fract_y
 _atom_site_fract_z
 _atom_site_occupancy
  Sr  Sr0  1  0.00000000  0.99999900  0.00000500  1
  Fe  Fe1  1  0.50002100  0.50000800  0.50000700  1
  Fe  Fe2  1  0.99998200  0.50000100  0.49999000  1
  S  S3  1  0.58567000  0.49997400  0.17119100  1
  S  S4  1  0.41438500  0.82877600  0.50001700  1
  S  S5  1  0.08562200  0.17123800  0.49999100  1
  S  S6  1  0.91432000  0.50000400  0.82879900  1
loop_
 _atom_site_moment_label
 _atom_site_moment_crystalaxis_x
 _atom_site_moment_crystalaxis_y
 _atom_site_moment_crystalaxis_z
  Fe1  -3.54554134  -0.00035029  -3.86888148
  Fe2  3.54554134  0.00035029  3.86888148
