# generated using pymatgen
data_Mn3Ge
_symmetry_space_group_name_H-M   'P 1'
_cell_length_a   4.69845400
_cell_length_b   6.01082741
_cell_length_c   6.01112100
_cell_angle_alpha   58.89110780
_cell_angle_beta   89.99939698
_cell_angle_gamma   90.00286078
_symmetry_Int_Tables_number   1
_chemical_formula_structural   Mn3Ge
_chemical_formula_sum   'Mn6 Ge2'
_cell_volume   145.34941559
_cell_formula_units_Z   2
loop_
 _symmetry_equiv_pos_site_id
 _symmetry_equiv_pos_as_xyz
  1  'x, y, z'
loop_
 _atom_site_type_symbol
 _atom_site_label
 _atom_site_symmetry_multiplicity
 _atom_site_fract_x
 _atom_site_fract_y
 _atom_site_fract_z
 _atom_site_occupancy
  Mn  Mn0  1  0.25000600  0.33196400  0.82859800  1
  Mn  Mn1  1  0.74999100  0.16654100  0.17574800  1
  Mn  Mn2  1  0.74999100  0.66864000  0.16698300  1
  Mn  Mn3  1  0.24998700  0.83306600  0.33135500  1
  Mn  Mn4  1  0.25002000  0.82418500  0.83352300  1
  Mn  Mn5  1  0.75001400  0.17136000  0.66802900  1
  Ge  Ge6  1  0.24999700  0.33503600  0.33079500  1
  Ge  Ge7  1  0.74999400  0.66920700  0.66496900  1
loop_
 _atom_site_moment_label
 _atom_site_moment_crystalaxis_x
 _atom_site_moment_crystalaxis_y
 _atom_site_moment_crystalaxis_z
  Mn0  -4.46900001  -0.00016867  0.00011188
  Mn1  -4.43800001  -0.00016750  0.00011110
  Mn2  -4.46800001  -0.00016864  0.00011185
  Mn3  4.46800001  0.00016864  -0.00011185
  Mn4  4.43800001  0.00016750  -0.00011110
  Mn5  4.46900001  0.00016867  -0.00011188
