# generated using pymatgen
data_NaVS2
_symmetry_space_group_name_H-M   'P 1'
_cell_length_a   3.67695508
_cell_length_b   3.67663758
_cell_length_c   6.88049269
_cell_angle_alpha   74.50451475
_cell_angle_beta   74.50379717
_cell_angle_gamma   60.02392651
_symmetry_Int_Tables_number   1
_chemical_formula_structural   NaVS2
_chemical_formula_sum   'Na1 V1 S2'
_cell_volume   76.64282101
_cell_formula_units_Z   1
loop_
 _symmetry_equiv_pos_site_id
 _symmetry_equiv_pos_as_xyz
  1  'x, y, z'
loop_
 _atom_site_type_symbol
 _atom_site_label
 _atom_site_symmetry_multiplicity
 _atom_site_fract_x
 _atom_site_fract_y
 _atom_site_fract_z
 _atom_site_occupancy
  Na  Na0  1  0.50000000  0.50000000  0.50000000  1
  V  V1  1  0.00000000  0.00000000  0.00000000  1
  S  S2  1  0.73525700  0.73526200  0.79422000  1
  S  S3  1  0.26474300  0.26473800  0.20578000  1
loop_
 _atom_site_moment_label
 _atom_site_moment_crystalaxis_x
 _atom_site_moment_crystalaxis_y
 _atom_site_moment_crystalaxis_z
  Na0  0.00000423  0.00000420  -0.00100223
  V1  -0.00838741  -0.00832006  1.98741596
  S2  0.00022417  0.00022237  -0.05311803
  S3  0.00022417  0.00022237  -0.05311803
