# generated using pymatgen
data_Li(CrS2)2
_symmetry_space_group_name_H-M   'P 1'
_cell_length_a   7.08680053
_cell_length_b   7.08650542
_cell_length_c   7.08654513
_cell_angle_alpha   92.43882043
_cell_angle_beta   118.60107508
_cell_angle_gamma   118.60151264
_symmetry_Int_Tables_number   1
_chemical_formula_structural   Li(CrS2)2
_chemical_formula_sum   'Li2 Cr4 S8'
_cell_volume   256.72451468
_cell_formula_units_Z   2
loop_
 _symmetry_equiv_pos_site_id
 _symmetry_equiv_pos_as_xyz
  1  'x, y, z'
loop_
 _atom_site_type_symbol
 _atom_site_label
 _atom_site_symmetry_multiplicity
 _atom_site_fract_x
 _atom_site_fract_y
 _atom_site_fract_z
 _atom_site_occupancy
  Li  Li0  1  0.00000000  0.00000100  0.00000300  1
  Li  Li1  1  0.49999800  0.74999700  0.24999700  1
  Cr  Cr2  1  0.25000800  0.37500400  0.62501000  1
  Cr  Cr3  1  0.74999200  0.37499100  0.62499600  1
  Cr  Cr4  1  0.74999300  0.37500100  0.12499700  1
  Cr  Cr5  1  0.25000900  0.87500700  0.62499700  1
  S  S6  1  0.22338100  0.62149500  0.84486300  1
  S  S7  1  0.77662200  0.15513900  0.37850700  1
  S  S8  1  0.77662200  0.62148500  0.39811400  1
  S  S9  1  0.22337800  0.60188500  0.37851600  1
  S  S10  1  0.27661600  0.12853000  0.40515600  1
  S  S11  1  0.27661700  0.14808400  0.87145900  1
  S  S12  1  0.72338200  0.12854000  0.85191500  1
  S  S13  1  0.72338300  0.59484100  0.87147000  1
loop_
 _atom_site_moment_label
 _atom_site_moment_crystalaxis_x
 _atom_site_moment_crystalaxis_y
 _atom_site_moment_crystalaxis_z
  Li0  0.00000000  -0.00000038  0.00199999
  Li1  0.00000000  -0.00000038  0.00199999
  Cr2  0.00000540  -0.00058484  3.07897764
  Cr3  0.00000540  -0.00058465  3.07797765
  Cr4  0.00000540  -0.00058484  3.07897764
  Cr5  0.00000540  -0.00058484  3.07897764
  S6  -0.00000046  0.00004996  -0.26299809
  S7  -0.00000046  0.00004996  -0.26299809
  S8  -0.00000046  0.00005015  -0.26399808
  S9  -0.00000046  0.00005015  -0.26399808
  S10  -0.00000046  0.00004996  -0.26299809
  S11  -0.00000046  0.00005015  -0.26399808
  S12  -0.00000046  0.00005015  -0.26399808
  S13  -0.00000046  0.00004996  -0.26299809
