# generated using pymatgen
data_CrGa4
_symmetry_space_group_name_H-M   'P 1'
_cell_length_a   5.78635349
_cell_length_b   9.61011994
_cell_length_c   8.29935197
_cell_angle_alpha   115.62915159
_cell_angle_beta   90.11214027
_cell_angle_gamma   72.90240021
_symmetry_Int_Tables_number   1
_chemical_formula_structural   CrGa4
_chemical_formula_sum   'Cr4 Ga16'
_cell_volume   393.49037228
_cell_formula_units_Z   4
loop_
 _symmetry_equiv_pos_site_id
 _symmetry_equiv_pos_as_xyz
  1  'x, y, z'
loop_
 _atom_site_type_symbol
 _atom_site_label
 _atom_site_symmetry_multiplicity
 _atom_site_fract_x
 _atom_site_fract_y
 _atom_site_fract_z
 _atom_site_occupancy
  Cr  Cr0  1  0.49960700  0.00054800  0.50045000  1
  Cr  Cr1  1  0.75039500  0.49941100  0.74947200  1
  Cr  Cr2  1  0.99971800  0.00040800  0.00036500  1
  Cr  Cr3  1  0.25027700  0.49962200  0.24965100  1
  Ga  Ga4  1  0.62499500  0.24998200  0.62499400  1
  Ga  Ga5  1  0.87491900  0.74984700  0.87492400  1
  Ga  Ga6  1  0.12501200  0.25004200  0.12502500  1
  Ga  Ga7  1  0.37506900  0.75013100  0.37507200  1
  Ga  Ga8  1  0.25078400  0.99904800  0.24974200  1
  Ga  Ga9  1  0.49943000  0.50096000  0.50050900  1
  Ga  Ga10  1  0.75054500  0.99904200  0.74946900  1
  Ga  Ga11  1  0.99924400  0.50095500  0.00029500  1
  Ga  Ga12  1  0.87482500  0.75012100  0.37506700  1
  Ga  Ga13  1  0.12502400  0.24998400  0.62499300  1
  Ga  Ga14  1  0.37521300  0.74985500  0.87493100  1
  Ga  Ga15  1  0.62494600  0.25004200  0.12502400  1
  Ga  Ga16  1  0.75023300  0.99914800  0.24966500  1
  Ga  Ga17  1  0.99954600  0.50085900  0.50058900  1
  Ga  Ga18  1  0.25048000  0.99914300  0.74938900  1
  Ga  Ga19  1  0.49973900  0.50085500  0.00037200  1
loop_
 _atom_site_moment_label
 _atom_site_moment_crystalaxis_x
 _atom_site_moment_crystalaxis_y
 _atom_site_moment_crystalaxis_z
  Cr0  -0.82903290  -2.72854499  -1.18002995
  Cr1  -0.82903290  -2.72854499  -1.18002995
  Cr2  0.83049247  2.73334876  1.18210747
  Cr3  0.83020055  2.73238801  1.18169197
  Ga4  0.03211043  0.10568308  0.04570539
  Ga6  -0.03240234  -0.10664384  -0.04612089
  Ga8  0.00058383  0.00192151  0.00083101
  Ga9  -0.00087574  -0.00288227  -0.00124651
  Ga10  -0.00087574  -0.00288227  -0.00124651
  Ga11  0.00058383  0.00192151  0.00083101
  Ga13  0.03356999  0.11048686  0.04778290
  Ga15  -0.03356999  -0.11048686  -0.04778290
  Ga16  -0.00087574  -0.00288227  -0.00124651
  Ga17  0.00087574  0.00288227  0.00124651
  Ga18  0.00087574  0.00288227  0.00124651
  Ga19  -0.00087574  -0.00288227  -0.00124651
