# generated using pymatgen
data_Mg14FeSi
_symmetry_space_group_name_H-M   'P 1'
_cell_length_a   6.29755821
_cell_length_b   21.17595066
_cell_length_c   10.81299606
_cell_angle_alpha   74.77975357
_cell_angle_beta   90.10632496
_cell_angle_gamma   98.20537044
_symmetry_Int_Tables_number   1
_chemical_formula_structural   Mg14FeSi
_chemical_formula_sum   'Mg56 Fe4 Si4'
_cell_volume   1376.20510213
_cell_formula_units_Z   4
loop_
 _symmetry_equiv_pos_site_id
 _symmetry_equiv_pos_as_xyz
  1  'x, y, z'
loop_
 _atom_site_type_symbol
 _atom_site_label
 _atom_site_symmetry_multiplicity
 _atom_site_fract_x
 _atom_site_fract_y
 _atom_site_fract_z
 _atom_site_occupancy
  Mg  Mg0  1  0.99984800  0.99984600  0.83572000  1
  Mg  Mg1  1  0.24975900  0.49980700  0.58574800  1
  Mg  Mg2  1  0.74969600  0.49977000  0.08571300  1
  Mg  Mg3  1  0.49976000  0.99982700  0.33569100  1
  Mg  Mg4  1  0.99939900  0.99996600  0.33483300  1
  Mg  Mg5  1  0.24939300  0.49995600  0.08474100  1
  Mg  Mg6  1  0.74957000  0.50008200  0.58475300  1
  Mg  Mg7  1  0.49978700  0.00016300  0.83461400  1
  Mg  Mg8  1  0.87643800  0.25000000  0.46811200  1
  Mg  Mg9  1  0.12625100  0.75002800  0.21787600  1
  Mg  Mg10  1  0.62555600  0.74995600  0.71743300  1
  Mg  Mg11  1  0.37549700  0.24993300  0.96762100  1
  Mg  Mg12  1  0.37398200  0.25005600  0.46745600  1
  Mg  Mg13  1  0.62381700  0.75003800  0.21748500  1
  Mg  Mg14  1  0.12345700  0.75002700  0.71768900  1
  Mg  Mg15  1  0.87327600  0.25000800  0.96829200  1
  Mg  Mg16  1  0.74964700  0.99997700  0.58166600  1
  Mg  Mg17  1  0.99969400  0.50008300  0.33162700  1
  Mg  Mg18  1  0.49958600  0.50002200  0.83160800  1
  Mg  Mg19  1  0.24972600  0.00006400  0.08172000  1
  Mg  Mg20  1  0.24998600  0.99994100  0.58172000  1
  Mg  Mg21  1  0.49990800  0.49998600  0.33177300  1
  Mg  Mg22  1  0.99977800  0.49997100  0.83160300  1
  Mg  Mg23  1  0.74998800  0.00002900  0.08170100  1
  Mg  Mg24  1  0.06261900  0.12510800  0.60353100  1
  Mg  Mg25  1  0.31244200  0.62509000  0.35350600  1
  Mg  Mg26  1  0.81219400  0.62504600  0.85343000  1
  Mg  Mg27  1  0.56244500  0.12516300  0.10344600  1
  Mg  Mg28  1  0.18660900  0.37459000  0.47922400  1
  Mg  Mg29  1  0.43666800  0.87454800  0.22935700  1
  Mg  Mg30  1  0.93642100  0.87446600  0.72945200  1
  Mg  Mg31  1  0.68625500  0.37453200  0.97940500  1
  Mg  Mg32  1  0.06318300  0.12616800  0.10164400  1
  Mg  Mg33  1  0.31316200  0.62624000  0.85167900  1
  Mg  Mg34  1  0.81323400  0.62625500  0.35152100  1
  Mg  Mg35  1  0.56342300  0.12623600  0.60140000  1
  Mg  Mg36  1  0.18692600  0.37369500  0.97853400  1
  Mg  Mg37  1  0.43699200  0.87365600  0.72877800  1
  Mg  Mg38  1  0.93711800  0.87369100  0.22861900  1
  Mg  Mg39  1  0.68718700  0.37374700  0.47861000  1
  Mg  Mg40  1  0.81763800  0.13413200  0.34483100  1
  Mg  Mg41  1  0.06713600  0.63396900  0.09507200  1
  Mg  Mg42  1  0.56806000  0.63410300  0.59474500  1
  Mg  Mg43  1  0.31815200  0.13414600  0.84467200  1
  Mg  Mg44  1  0.93404800  0.36616500  0.22802500  1
  Mg  Mg45  1  0.18444300  0.86643200  0.97821200  1
  Mg  Mg46  1  0.68373900  0.86612200  0.47805600  1
  Mg  Mg47  1  0.43380600  0.36608700  0.72800300  1
  Mg  Mg48  1  0.31579000  0.13377900  0.34461800  1
  Mg  Mg49  1  0.56550000  0.63360800  0.09486700  1
  Mg  Mg50  1  0.06633500  0.63390400  0.59443600  1
  Mg  Mg51  1  0.81633900  0.13387900  0.84455700  1
  Mg  Mg52  1  0.43270100  0.36624200  0.22809500  1
  Mg  Mg53  1  0.68300100  0.86633700  0.97819600  1
  Mg  Mg54  1  0.18249400  0.86614000  0.47817400  1
  Mg  Mg55  1  0.93238100  0.36611300  0.72828600  1
  Fe  Fe56  1  0.12429800  0.25011100  0.71428500  1
  Fe  Fe57  1  0.37483800  0.75005700  0.46419300  1
  Fe  Fe58  1  0.87596800  0.74984200  0.96356900  1
  Fe  Fe59  1  0.62525100  0.24968800  0.21421400  1
  Si  Si60  1  0.12703500  0.25043700  0.20789100  1
  Si  Si61  1  0.37640800  0.75020800  0.95807700  1
  Si  Si62  1  0.87673900  0.75021000  0.45800400  1
  Si  Si63  1  0.62723100  0.25053700  0.70763100  1
loop_
 _atom_site_moment_label
 _atom_site_moment_crystalaxis_x
 _atom_site_moment_crystalaxis_y
 _atom_site_moment_crystalaxis_z
  Mg1  -0.00015244  -0.00104778  0.00027118
  Mg2  0.00015244  0.00104778  -0.00027118
  Mg4  -0.00015244  -0.00104778  0.00027118
  Mg5  0.00045732  0.00314335  -0.00081353
  Mg6  -0.00045732  -0.00314335  0.00081353
  Mg7  0.00015244  0.00104778  -0.00027118
  Mg8  -0.00030488  -0.00209557  0.00054236
  Mg10  -0.00015244  -0.00104778  0.00027118
  Mg11  0.00030488  0.00209557  -0.00054236
  Mg12  -0.00015244  -0.00104778  0.00027118
  Mg13  -0.00030488  -0.00209557  0.00054236
  Mg16  -0.00030488  -0.00209557  0.00054236
  Mg19  0.00015244  0.00104778  -0.00027118
  Mg20  -0.00030488  -0.00209557  0.00054236
  Mg23  0.00030488  0.00209557  -0.00054236
  Mg24  0.00045732  0.00314335  -0.00081353
  Mg25  0.00060976  0.00419114  -0.00108471
  Mg26  -0.00076220  -0.00523892  0.00135589
  Mg27  -0.00045732  -0.00314335  0.00081353
  Mg28  0.00045732  0.00314335  -0.00081353
  Mg29  0.00045732  0.00314335  -0.00081353
  Mg30  -0.00045732  -0.00314335  0.00081353
  Mg31  -0.00045732  -0.00314335  0.00081353
  Mg33  -0.00045732  -0.00314335  0.00081353
  Mg34  0.00045732  0.00314335  -0.00081353
  Mg40  -0.00060976  -0.00419114  0.00108471
  Mg41  -0.00060976  -0.00419114  0.00108471
  Mg42  0.00060976  0.00419114  -0.00108471
  Mg43  0.00076220  0.00523892  -0.00135589
  Mg44  -0.00091464  -0.00628671  0.00162707
  Mg45  -0.00091464  -0.00628671  0.00162707
  Mg46  0.00091464  0.00628671  -0.00162707
  Mg47  0.00091464  0.00628671  -0.00162707
  Mg48  -0.00091464  -0.00628671  0.00162707
  Mg49  -0.00076220  -0.00523892  0.00135589
  Mg50  0.00076220  0.00523892  -0.00135589
  Mg51  0.00091464  0.00628671  -0.00162707
  Mg52  -0.00045732  -0.00314335  0.00081353
  Mg53  -0.00045732  -0.00314335  0.00081353
  Mg54  0.00045732  0.00314335  -0.00081353
  Mg55  0.00045732  0.00314335  -0.00081353
  Fe56  -0.52347939  -3.59809124  0.93122501
  Fe57  -0.51036954  -3.50798179  0.90790370
  Fe58  0.52043059  3.57713556  -0.92580145
  Fe59  0.52607087  3.61590357  -0.93583503
  Si60  -0.00076220  -0.00523892  0.00135589
  Si61  -0.00091464  -0.00628671  0.00162707
  Si62  0.00060976  0.00419114  -0.00108471
  Si63  0.00076220  0.00523892  -0.00135589
