# generated using pymatgen
data_LiMnP2
_symmetry_space_group_name_H-M   'P 1'
_cell_length_a   3.26093756
_cell_length_b   13.52115121
_cell_length_c   10.64963902
_cell_angle_alpha   47.49843623
_cell_angle_beta   90.07439131
_cell_angle_gamma   119.41676606
_symmetry_Int_Tables_number   1
_chemical_formula_structural   LiMnP2
_chemical_formula_sum   'Li4 Mn4 P8'
_cell_volume   258.54545180
_cell_formula_units_Z   4
loop_
 _symmetry_equiv_pos_site_id
 _symmetry_equiv_pos_as_xyz
  1  'x, y, z'
loop_
 _atom_site_type_symbol
 _atom_site_label
 _atom_site_symmetry_multiplicity
 _atom_site_fract_x
 _atom_site_fract_y
 _atom_site_fract_z
 _atom_site_occupancy
  Li  Li0  1  0.40860200  0.45971300  0.78987800  1
  Li  Li1  1  0.40648300  0.45904200  0.29044300  1
  Li  Li2  1  0.08842900  0.54027100  0.95994700  1
  Li  Li3  1  0.09356800  0.54089700  0.45948300  1
  Mn  Mn4  1  0.40048900  0.95072000  0.54609900  1
  Mn  Mn5  1  0.09910300  0.04913200  0.70434100  1
  Mn  Mn6  1  0.40308600  0.95099700  0.04558600  1
  Mn  Mn7  1  0.09895400  0.04923200  0.20414600  1
  P  P8  1  0.49045900  0.24454500  0.83831300  1
  P  P9  1  0.48719200  0.24417400  0.33871900  1
  P  P10  1  0.01173400  0.25677600  0.16685900  1
  P  P11  1  0.01475900  0.25696100  0.66659200  1
  P  P12  1  0.48746000  0.74326600  0.58322200  1
  P  P13  1  0.48686700  0.74309600  0.08326300  1
  P  P14  1  0.01039700  0.75532600  0.91181100  1
  P  P15  1  0.01241800  0.75585100  0.41129600  1
loop_
 _atom_site_moment_label
 _atom_site_moment_crystalaxis_x
 _atom_site_moment_crystalaxis_y
 _atom_site_moment_crystalaxis_z
  Mn4  -1.93896828  -7.28265269  4.19537403
  Mn5  -1.93896828  -7.28265269  4.19537403
  Mn6  1.93896828  7.28265269  -4.19537403
  Mn7  1.93896828  7.28265269  -4.19537403
  P8  -0.00309245  -0.01161508  0.00669119
  P9  0.00309245  0.01161508  -0.00669119
  P10  0.00353423  0.01327437  -0.00764707
  P11  -0.00353423  -0.01327437  0.00764707
  P12  -0.00353423  -0.01327437  0.00764707
  P13  0.00397601  0.01493367  -0.00860295
  P14  0.00309245  0.01161508  -0.00669119
  P15  -0.00309245  -0.01161508  0.00669119
