# generated using pymatgen
data_CsMnP
_symmetry_space_group_name_H-M   'P 1'
_cell_length_a   4.40767006
_cell_length_b   4.40826702
_cell_length_c   11.45519921
_cell_angle_alpha   90.00414786
_cell_angle_beta   89.98366832
_cell_angle_gamma   89.99196771
_symmetry_Int_Tables_number   1
_chemical_formula_structural   CsMnP
_chemical_formula_sum   'Cs2 Mn2 P2'
_cell_volume   222.57664607
_cell_formula_units_Z   2
loop_
 _symmetry_equiv_pos_site_id
 _symmetry_equiv_pos_as_xyz
  1  'x, y, z'
loop_
 _atom_site_type_symbol
 _atom_site_label
 _atom_site_symmetry_multiplicity
 _atom_site_fract_x
 _atom_site_fract_y
 _atom_site_fract_z
 _atom_site_occupancy
  Cs  Cs0  1  0.99704500  0.49977700  0.72531600  1
  Cs  Cs1  1  0.49660300  0.99992600  0.27467400  1
  Mn  Mn2  1  0.00200300  0.00006000  0.00025600  1
  Mn  Mn3  1  0.50196600  0.50010800  0.99974800  1
  P  P4  1  0.00106900  0.50007200  0.12144400  1
  P  P5  1  0.50131300  0.00005800  0.87856200  1
loop_
 _atom_site_moment_label
 _atom_site_moment_crystalaxis_x
 _atom_site_moment_crystalaxis_y
 _atom_site_moment_crystalaxis_z
  Mn2  0.00195662  -0.00063747  -4.47900013
  Mn3  -0.00195662  0.00063747  4.47900013
