# generated using pymatgen
data_Ca(MnAl2)4
_symmetry_space_group_name_H-M   'P 1'
_cell_length_a   5.54703948
_cell_length_b   7.10264234
_cell_length_c   7.10274555
_cell_angle_alpha   81.02383586
_cell_angle_beta   66.85458917
_cell_angle_gamma   66.85457728
_symmetry_Int_Tables_number   1
_chemical_formula_structural   Ca(MnAl2)4
_chemical_formula_sum   'Ca1 Mn4 Al8'
_cell_volume   236.60279506
_cell_formula_units_Z   1
loop_
 _symmetry_equiv_pos_site_id
 _symmetry_equiv_pos_as_xyz
  1  'x, y, z'
loop_
 _atom_site_type_symbol
 _atom_site_label
 _atom_site_symmetry_multiplicity
 _atom_site_fract_x
 _atom_site_fract_y
 _atom_site_fract_z
 _atom_site_occupancy
  Ca  Ca0  1  0.00000000  0.00000000  0.00000000  1
  Mn  Mn1  1  0.00000000  0.50000100  0.00000000  1
  Mn  Mn2  1  0.50000000  0.50000000  0.00000000  1
  Mn  Mn3  1  0.00000000  0.00000000  0.50000100  1
  Mn  Mn4  1  0.50000100  0.00000000  0.49999900  1
  Al  Al5  1  0.00003800  0.34796700  0.65202000  1
  Al  Al6  1  0.27267000  0.22759400  0.22760100  1
  Al  Al7  1  0.99996200  0.65203200  0.34798000  1
  Al  Al8  1  0.34934300  0.65135900  0.65135500  1
  Al  Al9  1  0.50000800  0.22747400  0.77251900  1
  Al  Al10  1  0.72732900  0.77240700  0.77239800  1
  Al  Al11  1  0.49999100  0.77252600  0.22748100  1
  Al  Al12  1  0.65065700  0.34864100  0.34864500  1
loop_
 _atom_site_moment_label
 _atom_site_moment_crystalaxis_x
 _atom_site_moment_crystalaxis_y
 _atom_site_moment_crystalaxis_z
  Ca0  0.00020191  0.00004496  -0.03008567
  Mn1  -0.02782258  -0.00619502  4.14580516
  Mn2  -0.02784277  -0.00619952  4.14881373
  Mn3  -0.02782258  -0.00619502  4.14580516
  Mn4  -0.02784277  -0.00619952  4.14881373
  Al5  0.00034324  0.00007643  -0.05114564
  Al6  0.00045092  0.00010040  -0.06719133
  Al7  0.00034324  0.00007643  -0.05114564
  Al8  0.00034324  0.00007643  -0.05114564
  Al9  0.00045765  0.00010190  -0.06819418
  Al10  0.00045092  0.00010040  -0.06719133
  Al11  0.00045765  0.00010190  -0.06819418
  Al12  0.00034324  0.00007643  -0.05114564
