# generated using pymatgen
data_Ca(Mo3S4)2
_symmetry_space_group_name_H-M   'P 1'
_cell_length_a   6.95422339
_cell_length_b   6.69615883
_cell_length_c   7.93360985
_cell_angle_alpha   98.49457079
_cell_angle_beta   107.60593379
_cell_angle_gamma   110.88016345
_symmetry_Int_Tables_number   1
_chemical_formula_structural   Ca(Mo3S4)2
_chemical_formula_sum   'Ca1 Mo6 S8'
_cell_volume   315.17738658
_cell_formula_units_Z   1
loop_
 _symmetry_equiv_pos_site_id
 _symmetry_equiv_pos_as_xyz
  1  'x, y, z'
loop_
 _atom_site_type_symbol
 _atom_site_label
 _atom_site_symmetry_multiplicity
 _atom_site_fract_x
 _atom_site_fract_y
 _atom_site_fract_z
 _atom_site_occupancy
  Ca  Ca0  1  0.00010300  0.00008300  0.00007000  1
  Mo  Mo1  1  0.71207400  0.23751100  0.43924100  1
  Mo  Mo2  1  0.43336500  0.67443600  0.90866500  1
  Mo  Mo3  1  0.34555600  0.37067400  0.38428300  1
  Mo  Mo4  1  0.28791000  0.76246600  0.56076600  1
  Mo  Mo5  1  0.56665900  0.32560600  0.09135500  1
  Mo  Mo6  1  0.65412300  0.62910600  0.61551400  1
  S  S7  1  0.72207400  0.04387500  0.15906600  1
  S  S8  1  0.27797900  0.95615100  0.84094800  1
  S  S9  1  0.71689300  0.52905300  0.89273800  1
  S  S10  1  0.28316600  0.47107700  0.10729400  1
  S  S11  1  0.30565200  0.99696800  0.34378000  1
  S  S12  1  0.69441900  0.00300600  0.65626800  1
  S  S13  1  0.85137400  0.61738700  0.40130800  1
  S  S14  1  0.14865300  0.38260000  0.59870600  1
loop_
 _atom_site_moment_label
 _atom_site_moment_crystalaxis_x
 _atom_site_moment_crystalaxis_y
 _atom_site_moment_crystalaxis_z
  Mo1  -0.11657860  -0.14031348  -2.13053778
  Mo2  -0.13160653  -0.15840103  -2.40518142
  Mo3  0.04300904  0.05176548  0.78601370
  Mo4  0.11657860  0.14031348  2.13053778
  Mo5  0.13160653  0.15840103  2.40518142
  Mo6  -0.04306511  -0.05183298  -0.78703849
  S7  0.00022430  0.00026996  0.00409916
  S8  -0.00022430  -0.00026996  -0.00409916
  S9  0.00022430  0.00026996  0.00409916
  S10  -0.00022430  -0.00026996  -0.00409916
  S11  0.00056074  0.00067491  0.01024790
  S12  -0.00056074  -0.00067491  -0.01024790
  S13  -0.00044859  -0.00053993  -0.00819832
  S14  0.00050467  0.00060742  0.00922311
