# generated using pymatgen
data_K(FeSe)2
_symmetry_space_group_name_H-M   'P 1'
_cell_length_a   4.12738430
_cell_length_b   7.63517495
_cell_length_c   8.29735253
_cell_angle_alpha   104.32101636
_cell_angle_beta   90.21029376
_cell_angle_gamma   74.36498884
_symmetry_Int_Tables_number   1
_chemical_formula_structural   K(FeSe)2
_chemical_formula_sum   'K2 Fe4 Se4'
_cell_volume   243.42044388
_cell_formula_units_Z   2
loop_
 _symmetry_equiv_pos_site_id
 _symmetry_equiv_pos_as_xyz
  1  'x, y, z'
loop_
 _atom_site_type_symbol
 _atom_site_label
 _atom_site_symmetry_multiplicity
 _atom_site_fract_x
 _atom_site_fract_y
 _atom_site_fract_z
 _atom_site_occupancy
  K  K0  1  0.99943900  0.99945000  0.49968400  1
  K  K1  1  0.99871200  0.00257600  0.99960100  1
  Fe  Fe2  1  0.76057700  0.49792800  0.38385300  1
  Fe  Fe3  1  0.24192700  0.49754800  0.61340600  1
  Fe  Fe4  1  0.74441700  0.50267600  0.88814000  1
  Fe  Fe5  1  0.25418800  0.50133900  0.11732000  1
  Se  Se6  1  0.36222900  0.28062000  0.31490100  1
  Se  Se7  1  0.35593600  0.28420800  0.81713100  1
  Se  Se8  1  0.63944500  0.71500500  0.68206700  1
  Se  Se9  1  0.64313100  0.71865000  0.18389500  1
loop_
 _atom_site_moment_label
 _atom_site_moment_crystalaxis_x
 _atom_site_moment_crystalaxis_y
 _atom_site_moment_crystalaxis_z
  K0  -0.00050995  0.00100739  0.00049867
  K1  0.00050995  -0.00100739  -0.00049867
  Fe2  1.72719452  -3.41203769  -1.68898024
  Fe3  1.57421007  -3.10982000  -1.53938057
  Fe4  -1.74606261  3.44931120  1.70743086
  Fe5  -1.55279224  3.06750953  1.51843662
  Se6  0.01325865  -0.02619220  -0.01296530
  Se7  -0.01376860  0.02719959  0.01346397
  Se8  0.00713927  -0.01410349  -0.00698132
  Se9  -0.00815917  0.01611828  0.00797865
