# generated using pymatgen
data_KCr5Se8
_symmetry_space_group_name_H-M   'P 1'
_cell_length_a   3.72662838
_cell_length_b   9.26343674
_cell_length_c   9.77535998
_cell_angle_alpha   104.84520593
_cell_angle_beta   100.99037042
_cell_angle_gamma   90.00516528
_symmetry_Int_Tables_number   1
_chemical_formula_structural   KCr5Se8
_chemical_formula_sum   'K1 Cr5 Se8'
_cell_volume   319.78636400
_cell_formula_units_Z   1
loop_
 _symmetry_equiv_pos_site_id
 _symmetry_equiv_pos_as_xyz
  1  'x, y, z'
loop_
 _atom_site_type_symbol
 _atom_site_label
 _atom_site_symmetry_multiplicity
 _atom_site_fract_x
 _atom_site_fract_y
 _atom_site_fract_z
 _atom_site_occupancy
  K  K0  1  0.50000000  0.50000000  0.99999900  1
  Cr  Cr1  1  0.00000000  0.99999900  0.00000000  1
  Cr  Cr2  1  0.34152300  0.02289900  0.68380900  1
  Cr  Cr3  1  0.65847800  0.97710300  0.31619500  1
  Cr  Cr4  1  0.29551000  0.66592600  0.59087100  1
  Cr  Cr5  1  0.70448900  0.33407500  0.40912700  1
  Se  Se6  1  0.57594100  0.15266900  0.15088800  1
  Se  Se7  1  0.42405900  0.84733000  0.84911100  1
  Se  Se8  1  0.08457100  0.82470200  0.16850800  1
  Se  Se9  1  0.91542900  0.17529900  0.83149300  1
  Se  Se10  1  0.16971700  0.48933900  0.33962900  1
  Se  Se11  1  0.83028300  0.51066000  0.66036900  1
  Se  Se12  1  0.23791300  0.15599000  0.47577900  1
  Se  Se13  1  0.76208800  0.84401000  0.52422100  1
loop_
 _atom_site_moment_label
 _atom_site_moment_crystalaxis_x
 _atom_site_moment_crystalaxis_y
 _atom_site_moment_crystalaxis_z
  K0  0.00000132  -0.00000481  -0.00300098
  Cr1  -0.00141875  0.00516333  3.22304814
  Cr2  -0.00144825  0.00527070  3.29006993
  Cr3  -0.00144825  0.00527070  3.29006993
  Cr4  -0.00145266  0.00528673  3.30007318
  Cr5  -0.00145266  0.00528673  3.30007318
  Se6  0.00008675  -0.00031570  -0.19706409
  Se7  0.00008675  -0.00031570  -0.19706409
  Se8  0.00009115  -0.00033172  -0.20706734
  Se9  0.00009115  -0.00033172  -0.20706734
  Se10  0.00010920  -0.00039743  -0.24808068
  Se11  0.00010920  -0.00039743  -0.24808068
  Se12  0.00007530  -0.00027403  -0.17105563
  Se13  0.00007530  -0.00027403  -0.17105563
