# generated using pymatgen
data_Cs(CrS2)2
_symmetry_space_group_name_H-M   'P 1'
_cell_length_a   7.98380269
_cell_length_b   7.98394009
_cell_length_c   7.98395200
_cell_angle_alpha   60.00006079
_cell_angle_beta   59.99941228
_cell_angle_gamma   59.99938234
_symmetry_Int_Tables_number   1
_chemical_formula_structural   Cs(CrS2)2
_chemical_formula_sum   'Cs2 Cr4 S8'
_cell_volume   359.85391110
_cell_formula_units_Z   2
loop_
 _symmetry_equiv_pos_site_id
 _symmetry_equiv_pos_as_xyz
  1  'x, y, z'
loop_
 _atom_site_type_symbol
 _atom_site_label
 _atom_site_symmetry_multiplicity
 _atom_site_fract_x
 _atom_site_fract_y
 _atom_site_fract_z
 _atom_site_occupancy
  Cs  Cs0  1  0.00000300  0.99999500  0.00000300  1
  Cs  Cs1  1  0.74999700  0.75000500  0.74999800  1
  Cr  Cr2  1  0.37500000  0.37500000  0.37500000  1
  Cr  Cr3  1  0.37500000  0.37500000  0.87500000  1
  Cr  Cr4  1  0.37500000  0.87500000  0.37500000  1
  Cr  Cr5  1  0.87500000  0.37500000  0.37500000  1
  S  S6  1  0.15519200  0.15519600  0.15519400  1
  S  S7  1  0.59480800  0.59480400  0.21558200  1
  S  S8  1  0.21557900  0.59480600  0.59480800  1
  S  S9  1  0.59480600  0.21558500  0.59480400  1
  S  S10  1  0.53442100  0.15519500  0.15519200  1
  S  S11  1  0.15519300  0.53441500  0.15519600  1
  S  S12  1  0.59480800  0.59480400  0.59480600  1
  S  S13  1  0.15519200  0.15519600  0.53441900  1
loop_
 _atom_site_moment_label
 _atom_site_moment_crystalaxis_x
 _atom_site_moment_crystalaxis_y
 _atom_site_moment_crystalaxis_z
  Cs0  0.00000000  -0.00000007  -0.06199997
  Cs1  0.00000000  -0.00000007  -0.06199997
  Cr2  -0.00000023  0.00000362  3.36799831
  Cr3  -0.00000023  0.00000362  3.36799831
  Cr4  -0.00000023  0.00000362  3.36799831
  Cr5  -0.00000023  0.00000362  3.36799831
  S6  0.00000002  -0.00000038  -0.35399982
  S7  0.00000002  -0.00000038  -0.35599982
  S8  0.00000002  -0.00000038  -0.35499982
  S9  0.00000002  -0.00000038  -0.35599982
  S10  0.00000002  -0.00000038  -0.35499982
  S11  0.00000002  -0.00000038  -0.35599982
  S12  0.00000002  -0.00000038  -0.35399982
  S13  0.00000002  -0.00000038  -0.35599982
