# generated using pymatgen
data_Cr5Se8
_symmetry_space_group_name_H-M   'P 1'
_cell_length_a   6.97550077
_cell_length_b   6.97549232
_cell_length_c   8.61407293
_cell_angle_alpha   55.11145792
_cell_angle_beta   55.11068131
_cell_angle_gamma   63.69952259
_symmetry_Int_Tables_number   1
_chemical_formula_structural   Cr5Se8
_chemical_formula_sum   'Cr5 Se8'
_cell_volume   277.79377958
_cell_formula_units_Z   1
loop_
 _symmetry_equiv_pos_site_id
 _symmetry_equiv_pos_as_xyz
  1  'x, y, z'
loop_
 _atom_site_type_symbol
 _atom_site_label
 _atom_site_symmetry_multiplicity
 _atom_site_fract_x
 _atom_site_fract_y
 _atom_site_fract_z
 _atom_site_occupancy
  Cr  Cr0  1  0.00000200  0.00000300  0.99999600  1
  Cr  Cr1  1  0.26926700  0.26925900  0.98897900  1
  Cr  Cr2  1  0.73073200  0.73073900  0.01101800  1
  Cr  Cr3  1  0.26745700  0.73255900  0.50000900  1
  Cr  Cr4  1  0.73254600  0.26744300  0.49999400  1
  Se  Se5  1  0.97799800  0.97798300  0.32112400  1
  Se  Se6  1  0.02199900  0.02202000  0.67888400  1
  Se  Se7  1  0.45402700  0.45402200  0.33495800  1
  Se  Se8  1  0.54597500  0.54597600  0.66504300  1
  Se  Se9  1  0.02955600  0.54527500  0.16959700  1
  Se  Se10  1  0.54526500  0.02957300  0.16959500  1
  Se  Se11  1  0.97044300  0.45472400  0.83040100  1
  Se  Se12  1  0.45473300  0.97042500  0.83040400  1
loop_
 _atom_site_moment_label
 _atom_site_moment_crystalaxis_x
 _atom_site_moment_crystalaxis_y
 _atom_site_moment_crystalaxis_z
  Cr0  -0.01524977  -0.01521407  3.33836983
  Cr1  -0.01490997  -0.01487506  3.26398279
  Cr2  -0.01490997  -0.01487506  3.26398279
  Cr3  -0.01485946  -0.01482467  3.25292526
  Cr4  -0.01485946  -0.01482467  3.25292526
  Se5  0.00120768  0.00120485  -0.26437557
  Se6  0.00120768  0.00120485  -0.26437557
  Se7  0.00140054  0.00139726  -0.30659524
  Se8  0.00140054  0.00139726  -0.30659524
  Se9  0.00123982  0.00123692  -0.27141218
  Se10  0.00123982  0.00123692  -0.27141218
  Se11  0.00123982  0.00123692  -0.27141218
  Se12  0.00123982  0.00123692  -0.27141218
