# generated using pymatgen
data_LiMnSb2
_symmetry_space_group_name_H-M   'P 1'
_cell_length_a   6.63353449
_cell_length_b   10.40049588
_cell_length_c   8.42915150
_cell_angle_alpha   96.86837656
_cell_angle_beta   129.30935612
_cell_angle_gamma   110.96064142
_symmetry_Int_Tables_number   1
_chemical_formula_structural   LiMnSb2
_chemical_formula_sum   'Li4 Mn4 Sb8'
_cell_volume   368.80911650
_cell_formula_units_Z   4
loop_
 _symmetry_equiv_pos_site_id
 _symmetry_equiv_pos_as_xyz
  1  'x, y, z'
loop_
 _atom_site_type_symbol
 _atom_site_label
 _atom_site_symmetry_multiplicity
 _atom_site_fract_x
 _atom_site_fract_y
 _atom_site_fract_z
 _atom_site_occupancy
  Li  Li0  1  0.12788100  0.50077700  0.25381300  1
  Li  Li1  1  0.37210800  0.49921700  0.74617900  1
  Li  Li2  1  0.62783600  0.50075700  0.25374900  1
  Li  Li3  1  0.87216900  0.49924400  0.74625100  1
  Mn  Mn4  1  0.37476700  0.00188800  0.25481300  1
  Mn  Mn5  1  0.12524400  0.99811400  0.74520000  1
  Mn  Mn6  1  0.62526400  0.99810600  0.74520100  1
  Mn  Mn7  1  0.87473000  0.00189400  0.25479500  1
  Sb  Sb8  1  0.23900400  0.24762500  0.24520100  1
  Sb  Sb9  1  0.49605500  0.24779400  0.74846700  1
  Sb  Sb10  1  0.73901000  0.24762600  0.24520200  1
  Sb  Sb11  1  0.99603300  0.24780600  0.74849000  1
  Sb  Sb12  1  0.00394100  0.75220500  0.25152500  1
  Sb  Sb13  1  0.26099600  0.75237800  0.75479100  1
  Sb  Sb14  1  0.50398000  0.75219500  0.25152200  1
  Sb  Sb15  1  0.76098500  0.75237400  0.75480000  1
loop_
 _atom_site_moment_label
 _atom_site_moment_crystalaxis_x
 _atom_site_moment_crystalaxis_y
 _atom_site_moment_crystalaxis_z
  Mn4  -1.19044954  -4.96305927  -1.51737604
  Mn5  -1.19044954  -4.96305927  -1.51737604
  Mn6  1.19044954  4.96305927  1.51737604
  Mn7  1.19044954  4.96305927  1.51737604
  Sb8  -0.00345752  -0.01441460  -0.00440703
  Sb9  -0.00398944  -0.01663224  -0.00508504
  Sb10  0.00345752  0.01441460  0.00440703
  Sb11  0.00398944  0.01663224  0.00508504
  Sb12  -0.00398944  -0.01663224  -0.00508504
  Sb13  -0.00345752  -0.01441460  -0.00440703
  Sb14  0.00398944  0.01663224  0.00508504
  Sb15  0.00345752  0.01441460  0.00440703
