# generated using pymatgen
data_K(CrS2)2
_symmetry_space_group_name_H-M   'P 1'
_cell_length_a   3.54097525
_cell_length_b   5.90415221
_cell_length_c   8.28353544
_cell_angle_alpha   106.81620009
_cell_angle_beta   102.35400659
_cell_angle_gamma   90.00927214
_symmetry_Int_Tables_number   1
_chemical_formula_structural   K(CrS2)2
_chemical_formula_sum   'K1 Cr2 S4'
_cell_volume   161.57820410
_cell_formula_units_Z   1
loop_
 _symmetry_equiv_pos_site_id
 _symmetry_equiv_pos_as_xyz
  1  'x, y, z'
loop_
 _atom_site_type_symbol
 _atom_site_label
 _atom_site_symmetry_multiplicity
 _atom_site_fract_x
 _atom_site_fract_y
 _atom_site_fract_z
 _atom_site_occupancy
  K  K0  1  0.50000700  0.49998200  0.00000100  1
  Cr  Cr1  1  0.75213400  0.75869700  0.50429800  1
  Cr  Cr2  1  0.24786400  0.24132000  0.49570100  1
  S  S3  1  0.34134700  0.98827800  0.68229800  1
  S  S4  1  0.65865000  0.01172300  0.31770000  1
  S  S5  1  0.83606400  0.48060900  0.67204500  1
  S  S6  1  0.16393500  0.51939200  0.32795700  1
loop_
 _atom_site_moment_label
 _atom_site_moment_crystalaxis_x
 _atom_site_moment_crystalaxis_y
 _atom_site_moment_crystalaxis_z
  K0  -0.00002021  -0.00002998  -0.00101243
  Cr1  0.06184882  0.09176776  3.09903915
  Cr2  0.06182861  0.09173778  3.09802673
  S3  -0.00456643  -0.00677540  -0.22880851
  S4  -0.00456643  -0.00677540  -0.22880851
  S5  -0.00422293  -0.00626575  -0.21159725
  S6  -0.00422293  -0.00626575  -0.21159725
