# generated using pymatgen
data_KV5S8
_symmetry_space_group_name_H-M   'P 1'
_cell_length_a   3.61420920
_cell_length_b   11.13496092
_cell_length_c   14.43586360
_cell_angle_alpha   86.99355362
_cell_angle_beta   97.32412694
_cell_angle_gamma   99.28038638
_symmetry_Int_Tables_number   1
_chemical_formula_structural   KV5S8
_chemical_formula_sum   'K2 V10 S16'
_cell_volume   568.37390620
_cell_formula_units_Z   2
loop_
 _symmetry_equiv_pos_site_id
 _symmetry_equiv_pos_as_xyz
  1  'x, y, z'
loop_
 _atom_site_type_symbol
 _atom_site_label
 _atom_site_symmetry_multiplicity
 _atom_site_fract_x
 _atom_site_fract_y
 _atom_site_fract_z
 _atom_site_occupancy
  K  K0  1  0.01684000  0.99947600  0.00023200  1
  K  K1  1  0.01654500  0.50057700  0.50027200  1
  V  V2  1  0.15714500  0.38734900  0.92337900  1
  V  V3  1  0.16074300  0.88695600  0.42333500  1
  V  V4  1  0.84657800  0.61268200  0.07694600  1
  V  V5  1  0.85293200  0.11303600  0.57751800  1
  V  V6  1  0.79996700  0.37502100  0.21452300  1
  V  V7  1  0.79827100  0.87495500  0.71377500  1
  V  V8  1  0.20856800  0.62467000  0.78546200  1
  V  V9  1  0.21110300  0.12530600  0.28644900  1
  V  V10  1  0.50705000  0.75020600  0.25012300  1
  V  V11  1  0.49678800  0.25004400  0.74882300  1
  S  S12  1  0.26623100  0.43704000  0.09064100  1
  S  S13  1  0.26945200  0.93733100  0.59041100  1
  S  S14  1  0.73843500  0.56234000  0.90959800  1
  S  S15  1  0.74022200  0.06276300  0.41012000  1
  S  S16  1  0.67195600  0.16098100  0.17440000  1
  S  S17  1  0.66998300  0.66071900  0.67358900  1
  S  S18  1  0.33711200  0.83864900  0.82590000  1
  S  S19  1  0.34012300  0.33945600  0.32648000  1
  S  S20  1  0.93067000  0.59762100  0.24943200  1
  S  S21  1  0.91728500  0.09699000  0.74877100  1
  S  S22  1  0.07740400  0.40268900  0.75088100  1
  S  S23  1  0.08324600  0.90289300  0.25087800  1
  S  S24  1  0.58563800  0.24145700  0.92296200  1
  S  S25  1  0.59005600  0.74186800  0.42399500  1
  S  S26  1  0.41982500  0.75792700  0.07616000  1
  S  S27  1  0.41583300  0.25899400  0.57494300  1
loop_
 _atom_site_moment_label
 _atom_site_moment_crystalaxis_x
 _atom_site_moment_crystalaxis_y
 _atom_site_moment_crystalaxis_z
  K0  -0.00001166  -0.00059947  -0.00077233
  K1  -0.00001166  -0.00059947  -0.00077233
  V2  0.02340884  1.20312947  1.55006173
  V3  0.02319890  1.19233907  1.53615983
  V4  0.02321056  1.19293854  1.53693215
  V5  0.02347882  1.20672627  1.55469569
  V6  0.02321056  1.19293854  1.53693215
  V7  0.02338551  1.20193053  1.54851707
  V8  0.02338551  1.20193053  1.54851707
  V9  0.02321056  1.19293854  1.53693215
  V10  -0.02227747  -1.14498121  -1.47514594
  V11  0.02302394  1.18334707  1.52457491
  S12  -0.00087477  -0.04496000  -0.05792458
  S13  -0.00082812  -0.04256213  -0.05483527
  S14  -0.00083978  -0.04316160  -0.05560760
  S15  -0.00088643  -0.04555946  -0.05869691
  S16  -0.00100307  -0.05155413  -0.06642018
  S17  -0.00103806  -0.05335253  -0.06873717
  S18  -0.00102640  -0.05275306  -0.06796484
  S19  -0.00100307  -0.05155413  -0.06642018
  S20  -0.00009331  -0.00479573  -0.00617862
  S21  -0.00092142  -0.04735786  -0.06101389
  S22  -0.00092142  -0.04735786  -0.06101389
  S23  -0.00009331  -0.00479573  -0.00617862
  S24  -0.00104972  -0.05395199  -0.06950949
  S25  -0.00053653  -0.02757546  -0.03552707
  S26  -0.00053653  -0.02757546  -0.03552707
  S27  -0.00104972  -0.05395199  -0.06950949
