# generated using pymatgen
data_VAs
_symmetry_space_group_name_H-M   'P 1'
_cell_length_a   3.58200300
_cell_length_b   6.24050601
_cell_length_c   6.59992501
_cell_angle_alpha   89.99369098
_cell_angle_beta   89.99741261
_cell_angle_gamma   89.99651406
_symmetry_Int_Tables_number   1
_chemical_formula_structural   VAs
_chemical_formula_sum   'V4 As4'
_cell_volume   147.53149684
_cell_formula_units_Z   4
loop_
 _symmetry_equiv_pos_site_id
 _symmetry_equiv_pos_as_xyz
  1  'x, y, z'
loop_
 _atom_site_type_symbol
 _atom_site_label
 _atom_site_symmetry_multiplicity
 _atom_site_fract_x
 _atom_site_fract_y
 _atom_site_fract_z
 _atom_site_occupancy
  V  V0  1  0.74990400  0.99916500  0.24448500  1
  V  V1  1  0.74988000  0.49918600  0.25550900  1
  V  V2  1  0.25010000  0.00083500  0.75551700  1
  V  V3  1  0.25011000  0.50081200  0.74448600  1
  As  As4  1  0.24992600  0.24474200  0.41792600  1
  As  As5  1  0.75007700  0.75526100  0.58207700  1
  As  As6  1  0.75002500  0.25526100  0.91793900  1
  As  As7  1  0.24997800  0.74473900  0.08206100  1
loop_
 _atom_site_moment_label
 _atom_site_moment_crystalaxis_x
 _atom_site_moment_crystalaxis_y
 _atom_site_moment_crystalaxis_z
  V0  0.00005178  0.00011339  -2.16300001
  V1  0.00005178  0.00011339  -2.16300001
  V2  -0.00005178  -0.00011339  2.16300001
  V3  -0.00005178  -0.00011339  2.16300001
  As4  -0.00000251  -0.00000550  0.10500000
  As5  0.00000251  0.00000550  -0.10500000
  As6  0.00000251  0.00000550  -0.10500000
  As7  -0.00000251  -0.00000550  0.10500000
