# generated using pymatgen
data_Co3Se4
_symmetry_space_group_name_H-M   'P 1'
_cell_length_a   3.58652465
_cell_length_b   6.23335512
_cell_length_c   10.77074493
_cell_angle_alpha   89.52831651
_cell_angle_beta   90.00147863
_cell_angle_gamma   90.00467582
_symmetry_Int_Tables_number   1
_chemical_formula_structural   Co3Se4
_chemical_formula_sum   'Co6 Se8'
_cell_volume   240.78349407
_cell_formula_units_Z   2
loop_
 _symmetry_equiv_pos_site_id
 _symmetry_equiv_pos_as_xyz
  1  'x, y, z'
loop_
 _atom_site_type_symbol
 _atom_site_label
 _atom_site_symmetry_multiplicity
 _atom_site_fract_x
 _atom_site_fract_y
 _atom_site_fract_z
 _atom_site_occupancy
  Co  Co0  1  0.49999700  0.49999600  0.99999900  1
  Co  Co1  1  0.50002800  0.51083800  0.74621900  1
  Co  Co2  1  0.49997300  0.48916000  0.25378100  1
  Co  Co3  1  0.00000000  0.00000800  0.50000100  1
  Co  Co4  1  0.00001900  0.01085400  0.24640900  1
  Co  Co5  1  0.99998400  0.98914600  0.75359100  1
  Se  Se6  1  0.00002300  0.33121100  0.86357700  1
  Se  Se7  1  0.50003500  0.83114200  0.36375800  1
  Se  Se8  1  0.99996400  0.66878700  0.13641800  1
  Se  Se9  1  0.49996800  0.16885900  0.63624700  1
  Se  Se10  1  0.99996200  0.33084800  0.36502400  1
  Se  Se11  1  0.49996000  0.83075800  0.86482800  1
  Se  Se12  1  0.00004200  0.66915400  0.63497700  1
  Se  Se13  1  0.50004300  0.16924000  0.13517000  1
loop_
 _atom_site_moment_label
 _atom_site_moment_crystalaxis_x
 _atom_site_moment_crystalaxis_y
 _atom_site_moment_crystalaxis_z
  Co0  -0.00008942  -2.08688197  0.04524822
  Co1  0.00000848  0.19798880  -0.00429284
  Co2  0.00000853  0.19898875  -0.00431452
  Co3  0.00008882  2.07288276  -0.04494468
  Co4  -0.00000900  -0.20998812  0.00455301
  Co5  -0.00000900  -0.20998812  0.00455301
  Se6  -0.00000231  -0.05399695  0.00117077
  Se7  0.00000219  0.05099712  -0.00110573
  Se8  -0.00000231  -0.05399695  0.00117077
  Se9  0.00000219  0.05099712  -0.00110573
  Se10  -0.00000021  -0.00499972  0.00010840
  Se11  0.00000021  0.00499972  -0.00010840
  Se12  -0.00000021  -0.00499972  0.00010840
  Se13  0.00000021  0.00499972  -0.00010840
