# generated using pymatgen
data_Cs(FeSb)2
_symmetry_space_group_name_H-M   'P 1'
_cell_length_a   6.33489947
_cell_length_b   8.70059692
_cell_length_c   6.18912896
_cell_angle_alpha   69.22653579
_cell_angle_beta   88.90093996
_cell_angle_gamma   90.84351897
_symmetry_Int_Tables_number   1
_chemical_formula_structural   Cs(FeSb)2
_chemical_formula_sum   'Cs2 Fe4 Sb4'
_cell_volume   318.80874821
_cell_formula_units_Z   2
loop_
 _symmetry_equiv_pos_site_id
 _symmetry_equiv_pos_as_xyz
  1  'x, y, z'
loop_
 _atom_site_type_symbol
 _atom_site_label
 _atom_site_symmetry_multiplicity
 _atom_site_fract_x
 _atom_site_fract_y
 _atom_site_fract_z
 _atom_site_occupancy
  Cs  Cs0  1  0.49987600  0.00004600  0.49985100  1
  Cs  Cs1  1  0.00011600  0.99997800  0.00014700  1
  Fe  Fe2  1  0.25000800  0.49649300  0.52947000  1
  Fe  Fe3  1  0.24999800  0.50345300  0.97049300  1
  Fe  Fe4  1  0.75001100  0.49598700  0.03016000  1
  Fe  Fe5  1  0.74997000  0.50393200  0.46983900  1
  Sb  Sb6  1  0.01047100  0.30426600  0.34844900  1
  Sb  Sb7  1  0.51040800  0.30404600  0.84849700  1
  Sb  Sb8  1  0.48951200  0.69579400  0.15156000  1
  Sb  Sb9  1  0.98962900  0.69600600  0.65153300  1
loop_
 _atom_site_moment_label
 _atom_site_moment_crystalaxis_x
 _atom_site_moment_crystalaxis_y
 _atom_site_moment_crystalaxis_z
  Fe2  -0.97645652  -3.61666589  1.29374572
  Fe3  -0.97645652  -3.61666589  1.29374572
  Fe4  0.97617738  3.61563197  -1.29337587
  Fe5  0.97645652  3.61666589  -1.29374572
  Sb6  0.00334977  0.01240709  -0.00443824
  Sb7  -0.00334977  -0.01240709  0.00443824
  Sb8  0.00334977  0.01240709  -0.00443824
  Sb9  -0.00334977  -0.01240709  0.00443824
