# generated using pymatgen
data_LiFeAs
_symmetry_space_group_name_H-M   'P 1'
_cell_length_a   3.87628180
_cell_length_b   7.85140512
_cell_length_c   6.07285257
_cell_angle_alpha   95.68851897
_cell_angle_beta   90.09763080
_cell_angle_gamma   89.93263834
_symmetry_Int_Tables_number   1
_chemical_formula_structural   LiFeAs
_chemical_formula_sum   'Li4 Fe4 As4'
_cell_volume   183.91223664
_cell_formula_units_Z   4
loop_
 _symmetry_equiv_pos_site_id
 _symmetry_equiv_pos_as_xyz
  1  'x, y, z'
loop_
 _atom_site_type_symbol
 _atom_site_label
 _atom_site_symmetry_multiplicity
 _atom_site_fract_x
 _atom_site_fract_y
 _atom_site_fract_z
 _atom_site_occupancy
  Li  Li0  1  0.50125700  0.03477500  0.25555400  1
  Li  Li1  1  0.50118500  0.03431700  0.75216200  1
  Li  Li2  1  0.99846000  0.53588600  0.49565500  1
  Li  Li3  1  0.99812300  0.53382200  0.99607500  1
  Fe  Fe4  1  0.00067600  0.20869200  0.51194300  1
  Fe  Fe5  1  0.49910200  0.70712700  0.75948400  1
  Fe  Fe6  1  0.00049800  0.20673800  0.01223300  1
  Fe  Fe7  1  0.49901500  0.70719200  0.25779700  1
  As  As8  1  0.50014300  0.36311800  0.23819600  1
  As  As9  1  0.50020300  0.36311900  0.73828100  1
  As  As10  1  0.00092900  0.86451500  0.49134000  1
  As  As11  1  0.00040800  0.86349600  0.99128100  1
loop_
 _atom_site_moment_label
 _atom_site_moment_crystalaxis_x
 _atom_site_moment_crystalaxis_y
 _atom_site_moment_crystalaxis_z
  Fe4  0.99771281  -2.70328967  -1.12535606
  Fe5  1.00271137  -2.71683320  -1.13099412
  Fe6  -0.99737957  2.70238676  1.12498019
  Fe7  -1.00137842  2.71322159  1.12949064
  As8  -0.00966388  0.02618417  0.01090024
  As9  0.00933065  -0.02528127  -0.01052437
  As10  -0.01466245  0.03972770  0.01653830
  As11  0.01499568  -0.04063061  -0.01691417
