# generated using pymatgen
data_Fe7Ge4
_symmetry_space_group_name_H-M   'P 1'
_cell_length_a   4.29224503
_cell_length_b   11.50085164
_cell_length_c   7.45647171
_cell_angle_alpha   71.14343095
_cell_angle_beta   89.54079910
_cell_angle_gamma   79.86768826
_symmetry_Int_Tables_number   1
_chemical_formula_structural   Fe7Ge4
_chemical_formula_sum   'Fe14 Ge8'
_cell_volume   342.42576317
_cell_formula_units_Z   2
loop_
 _symmetry_equiv_pos_site_id
 _symmetry_equiv_pos_as_xyz
  1  'x, y, z'
loop_
 _atom_site_type_symbol
 _atom_site_label
 _atom_site_symmetry_multiplicity
 _atom_site_fract_x
 _atom_site_fract_y
 _atom_site_fract_z
 _atom_site_occupancy
  Fe  Fe0  1  0.74926300  0.50133800  0.08600000  1
  Fe  Fe1  1  0.31343500  0.37434600  0.30862700  1
  Fe  Fe2  1  0.80925300  0.37350500  0.82186400  1
  Fe  Fe3  1  0.18466100  0.62738300  0.18546900  1
  Fe  Fe4  1  0.68860000  0.62564900  0.69747200  1
  Fe  Fe5  1  0.63194700  0.73281800  0.30222200  1
  Fe  Fe6  1  0.86946200  0.26870000  0.53098400  1
  Fe  Fe7  1  0.24398300  0.49352400  0.58880100  1
  Fe  Fe8  1  0.05544200  0.88119900  0.05061800  1
  Fe  Fe9  1  0.58288600  0.88266800  0.56487300  1
  Fe  Fe10  1  0.44595900  0.12166700  0.43124100  1
  Fe  Fe11  1  0.92238000  0.11997700  0.94374200  1
  Fe  Fe12  1  0.11909300  0.77780900  0.77562600  1
  Fe  Fe13  1  0.38043400  0.22365600  0.04840600  1
  Ge  Ge14  1  0.49499900  0.98548000  0.17266600  1
  Ge  Ge15  1  0.00448900  0.01934700  0.65299000  1
  Ge  Ge16  1  0.25123000  0.49677300  0.91491800  1
  Ge  Ge17  1  0.73849600  0.50049500  0.42466500  1
  Ge  Ge18  1  0.62918500  0.75142900  0.95561300  1
  Ge  Ge19  1  0.12788500  0.75151200  0.46252100  1
  Ge  Ge20  1  0.87521200  0.24967800  0.20385000  1
  Ge  Ge21  1  0.38170600  0.24104500  0.71016600  1
loop_
 _atom_site_moment_label
 _atom_site_moment_crystalaxis_x
 _atom_site_moment_crystalaxis_y
 _atom_site_moment_crystalaxis_z
  Fe0  0.60092209  -3.34285301  1.07905352
  Fe1  0.59029485  -3.28373503  1.05997058
  Fe2  0.58024728  -3.22784167  1.04192853
  Fe3  0.59357964  -3.30200786  1.06586895
  Fe4  0.58140662  -3.23429091  1.04401030
  Fe5  0.59531864  -3.31168172  1.06899161
  Fe6  0.59280675  -3.29770837  1.06448110
  Fe7  -0.57000649  3.17087344  -1.02353951
  Fe8  -0.65212606  3.62769419  -1.17099860
  Fe9  -0.64323783  3.57825006  -1.15503832
  Fe10  -0.63937338  3.55675261  -1.14809907
  Fe11  -0.61019677  3.39444689  -1.09570772
  Fe12  -0.56981326  3.16979856  -1.02319255
  Fe13  -0.57966761  3.22461705  -1.04088764
  Ge14  0.02705116  -0.15048213  0.04857476
  Ge15  0.02724438  -0.15155700  0.04892172
  Ge16  -0.00579668  0.03224617  -0.01040888
  Ge17  -0.00695601  0.03869540  -0.01249065
  Ge18  0.00115934  -0.00644923  0.00208178
  Ge19  0.00289834  -0.01612309  0.00520444
  Ge20  -0.00096611  0.00537436  -0.00173481
  Ge21  0.00425090  -0.02364719  0.00763318
