# generated using pymatgen
data_RbFe2Se3
_symmetry_space_group_name_H-M   'P 1'
_cell_length_a   5.98234442
_cell_length_b   7.86332847
_cell_length_c   7.85722729
_cell_angle_alpha   102.41410539
_cell_angle_beta   90.43701430
_cell_angle_gamma   89.56370458
_symmetry_Int_Tables_number   1
_chemical_formula_structural   RbFe2Se3
_chemical_formula_sum   'Rb2 Fe4 Se6'
_cell_volume   360.95388822
_cell_formula_units_Z   2
loop_
 _symmetry_equiv_pos_site_id
 _symmetry_equiv_pos_as_xyz
  1  'x, y, z'
loop_
 _atom_site_type_symbol
 _atom_site_label
 _atom_site_symmetry_multiplicity
 _atom_site_fract_x
 _atom_site_fract_y
 _atom_site_fract_z
 _atom_site_occupancy
  Rb  Rb0  1  0.74720000  0.66593600  0.33374500  1
  Rb  Rb1  1  0.25281300  0.33379500  0.66597400  1
  Fe  Fe2  1  0.50000200  0.85443700  0.85441600  1
  Fe  Fe3  1  0.49999700  0.15553400  0.15553500  1
  Fe  Fe4  1  0.00000900  0.14486100  0.14487800  1
  Fe  Fe5  1  0.99998300  0.84406100  0.84405100  1
  Se  Se6  1  0.25244800  0.88442300  0.11549200  1
  Se  Se7  1  0.74757200  0.11528900  0.88420700  1
  Se  Se8  1  0.23486800  0.39225800  0.16335500  1
  Se  Se9  1  0.73982100  0.60741600  0.83868100  1
  Se  Se10  1  0.26014600  0.83850800  0.60720700  1
  Se  Se11  1  0.76514100  0.16348200  0.39245900  1
loop_
 _atom_site_moment_label
 _atom_site_moment_crystalaxis_x
 _atom_site_moment_crystalaxis_y
 _atom_site_moment_crystalaxis_z
  Fe2  -0.01410948  0.01385970  -3.72707719
  Fe3  -0.01339834  0.01316114  -3.53922450
  Fe4  0.01410948  -0.01385970  3.72707719
  Fe5  0.01339834  -0.01316114  3.53922450
  Se6  -0.00000378  0.00000372  -0.00099922
  Se8  0.00032531  -0.00031955  0.08593261
  Se9  -0.00032531  0.00031955  -0.08593261
  Se10  -0.00032531  0.00031955  -0.08593261
  Se11  0.00032531  -0.00031955  0.08593261
