# generated using pymatgen
data_V5Se4
_symmetry_space_group_name_H-M   'P 1'
_cell_length_a   3.87195670
_cell_length_b   7.35548159
_cell_length_c   14.12771549
_cell_angle_alpha   87.94275716
_cell_angle_beta   89.99499119
_cell_angle_gamma   105.22377407
_symmetry_Int_Tables_number   1
_chemical_formula_structural   V5Se4
_chemical_formula_sum   'V10 Se8'
_cell_volume   387.96998943
_cell_formula_units_Z   2
loop_
 _symmetry_equiv_pos_site_id
 _symmetry_equiv_pos_as_xyz
  1  'x, y, z'
loop_
 _atom_site_type_symbol
 _atom_site_label
 _atom_site_symmetry_multiplicity
 _atom_site_fract_x
 _atom_site_fract_y
 _atom_site_fract_z
 _atom_site_occupancy
  V  V0  1  0.49960600  0.99897900  0.49991300  1
  V  V1  1  0.45996900  0.91981900  0.84942500  1
  V  V2  1  0.54081400  0.08182500  0.15050200  1
  V  V3  1  0.35341000  0.70616300  0.04567400  1
  V  V4  1  0.64774900  0.29613000  0.95436300  1
  V  V5  1  0.00047200  0.00088900  0.00001700  1
  V  V6  1  0.95733300  0.91423700  0.34903800  1
  V  V7  1  0.04184500  0.08407300  0.65112200  1
  V  V8  1  0.85324500  0.70576900  0.54679800  1
  V  V9  1  0.14571000  0.29215800  0.45317400  1
  Se  Se10  1  0.90233700  0.80447800  0.17012700  1
  Se  Se11  1  0.40346700  0.80667800  0.67110300  1
  Se  Se12  1  0.59579300  0.19177900  0.32907700  1
  Se  Se13  1  0.09836200  0.19702600  0.82971000  1
  Se  Se14  1  0.16567200  0.33208400  0.09160000  1
  Se  Se15  1  0.66531700  0.33160300  0.59025300  1
  Se  Se16  1  0.33369900  0.66628100  0.40962200  1
  Se  Se17  1  0.83520000  0.67002900  0.90848200  1
loop_
 _atom_site_moment_label
 _atom_site_moment_crystalaxis_x
 _atom_site_moment_crystalaxis_y
 _atom_site_moment_crystalaxis_z
  V0  0.62706640  0.04628498  -2.44204011
  V1  0.65721143  0.04851004  -2.55943656
  V2  0.65721143  0.04851004  -2.55943656
  V3  0.66045015  0.04874910  -2.57204940
  V4  0.66094842  0.04878588  -2.57398984
  V5  -0.62656814  -0.04624820  2.44009967
  V6  -0.65795883  -0.04856521  2.56234721
  V7  -0.65795883  -0.04856521  2.56234721
  V8  -0.66069929  -0.04876749  2.57301962
  V9  -0.66045015  -0.04874910  2.57204940
  Se10  -0.00224219  -0.00016550  0.00873197
  Se11  0.00224219  0.00016550  -0.00873197
  Se12  0.00224219  0.00016550  -0.00873197
  Se13  -0.00224219  -0.00016550  0.00873197
  Se14  -0.00722484  -0.00053328  0.02813634
  Se15  0.00772311  0.00057006  -0.03007678
  Se16  0.00772311  0.00057006  -0.03007678
  Se17  -0.00747397  -0.00055167  0.02910656
