# generated using pymatgen
data_Li(CrS2)2
_symmetry_space_group_name_H-M   'P 1'
_cell_length_a   3.46481200
_cell_length_b   5.97271585
_cell_length_c   6.19726951
_cell_angle_alpha   90.51359434
_cell_angle_beta   89.99965914
_cell_angle_gamma   90.00045373
_symmetry_Int_Tables_number   1
_chemical_formula_structural   Li(CrS2)2
_chemical_formula_sum   'Li1 Cr2 S4'
_cell_volume   128.24323477
_cell_formula_units_Z   1
loop_
 _symmetry_equiv_pos_site_id
 _symmetry_equiv_pos_as_xyz
  1  'x, y, z'
loop_
 _atom_site_type_symbol
 _atom_site_label
 _atom_site_symmetry_multiplicity
 _atom_site_fract_x
 _atom_site_fract_y
 _atom_site_fract_z
 _atom_site_occupancy
  Li  Li0  1  0.00000000  0.50000000  0.50000000  1
  Cr  Cr1  1  0.50000000  0.00000000  0.00000000  1
  Cr  Cr2  1  0.00000000  0.50000000  0.00000000  1
  S  S3  1  0.00000200  0.83087000  0.78053500  1
  S  S4  1  0.50000200  0.33310100  0.77667000  1
  S  S5  1  0.49999800  0.66689900  0.22333000  1
  S  S6  1  0.99999800  0.16913000  0.21946400  1
loop_
 _atom_site_moment_label
 _atom_site_moment_crystalaxis_x
 _atom_site_moment_crystalaxis_y
 _atom_site_moment_crystalaxis_z
  Li0  0.00000000  0.00000070  -0.00099999
  Cr1  -0.00000938  -0.00213817  3.05798009
  Cr2  -0.00000937  -0.00213538  3.05398011
  S3  0.00000077  0.00017620  -0.25199836
  S4  0.00000067  0.00015173  -0.21699859
  S5  0.00000067  0.00015173  -0.21699859
  S6  0.00000077  0.00017620  -0.25199836
