# generated using pymatgen
data_CoSn3
_symmetry_space_group_name_H-M   'P 1'
_cell_length_a   9.14181730
_cell_length_b   9.14198540
_cell_length_c   6.37911519
_cell_angle_alpha   89.95509136
_cell_angle_beta   89.95466653
_cell_angle_gamma   139.74128383
_symmetry_Int_Tables_number   1
_chemical_formula_structural   CoSn3
_chemical_formula_sum   'Co4 Sn12'
_cell_volume   344.52937587
_cell_formula_units_Z   4
loop_
 _symmetry_equiv_pos_site_id
 _symmetry_equiv_pos_as_xyz
  1  'x, y, z'
loop_
 _atom_site_type_symbol
 _atom_site_label
 _atom_site_symmetry_multiplicity
 _atom_site_fract_x
 _atom_site_fract_y
 _atom_site_fract_z
 _atom_site_occupancy
  Co  Co0  1  0.57227700  0.42771100  0.49998900  1
  Co  Co1  1  0.08135800  0.91867000  0.00000100  1
  Co  Co2  1  0.42774000  0.57228600  0.50001300  1
  Co  Co3  1  0.91867500  0.08131000  0.99999200  1
  Sn  Sn4  1  0.15302400  0.15300200  0.67174500  1
  Sn  Sn5  1  0.66955100  0.66948700  0.84603700  1
  Sn  Sn6  1  0.33049500  0.33045400  0.15398400  1
  Sn  Sn7  1  0.84701300  0.84696500  0.32824900  1
  Sn  Sn8  1  0.97811600  0.64781500  0.68696900  1
  Sn  Sn9  1  0.47753000  0.14764800  0.81529800  1
  Sn  Sn10  1  0.85233900  0.52244400  0.18467600  1
  Sn  Sn11  1  0.35220100  0.02188300  0.31299300  1
  Sn  Sn12  1  0.64782100  0.97820100  0.68713400  1
  Sn  Sn13  1  0.14756000  0.47751900  0.81534400  1
  Sn  Sn14  1  0.52250900  0.85243400  0.18468600  1
  Sn  Sn15  1  0.02179000  0.35217000  0.31289200  1
loop_
 _atom_site_moment_label
 _atom_site_moment_crystalaxis_x
 _atom_site_moment_crystalaxis_y
 _atom_site_moment_crystalaxis_z
  Co0  -0.00212569  -0.00212334  1.27600251
  Co1  0.00014827  0.00014810  -0.08900017
  Co2  -0.00213569  -0.00213333  1.28200252
  Co3  0.00014993  0.00014977  -0.09000018
  Sn4  0.00003665  0.00003661  -0.02200004
  Sn5  0.00003165  0.00003162  -0.01900004
  Sn6  0.00003165  0.00003162  -0.01900004
  Sn7  0.00003665  0.00003661  -0.02200004
  Sn8  0.00001832  0.00001830  -0.01100002
  Sn9  0.00002499  0.00002496  -0.01500003
  Sn10  0.00002499  0.00002496  -0.01500003
  Sn11  0.00001832  0.00001830  -0.01100002
  Sn12  0.00001832  0.00001830  -0.01100002
  Sn13  0.00002332  0.00002330  -0.01400003
  Sn14  0.00002332  0.00002330  -0.01400003
  Sn15  0.00001832  0.00001830  -0.01100002
