# generated using pymatgen
data_CaFe5As3
_symmetry_space_group_name_H-M   'P 1'
_cell_length_a   3.93716898
_cell_length_b   7.73297564
_cell_length_c   10.45297974
_cell_angle_alpha   101.18839605
_cell_angle_beta   89.40859661
_cell_angle_gamma   90.19694603
_symmetry_Int_Tables_number   1
_chemical_formula_structural   CaFe5As3
_chemical_formula_sum   'Ca2 Fe10 As6'
_cell_volume   312.18624614
_cell_formula_units_Z   2
loop_
 _symmetry_equiv_pos_site_id
 _symmetry_equiv_pos_as_xyz
  1  'x, y, z'
loop_
 _atom_site_type_symbol
 _atom_site_label
 _atom_site_symmetry_multiplicity
 _atom_site_fract_x
 _atom_site_fract_y
 _atom_site_fract_z
 _atom_site_occupancy
  Ca  Ca0  1  0.25299700  0.29794800  0.71533500  1
  Ca  Ca1  1  0.74574200  0.69864200  0.28053900  1
  Fe  Fe2  1  0.25049800  0.81789200  0.78192400  1
  Fe  Fe3  1  0.74125100  0.18554500  0.22460400  1
  Fe  Fe4  1  0.74785500  0.57894200  0.58275900  1
  Fe  Fe5  1  0.26397000  0.41594700  0.41091000  1
  Fe  Fe6  1  0.24014600  0.03935800  0.40865200  1
  Fe  Fe7  1  0.24902700  0.62714200  0.00183200  1
  Fe  Fe8  1  0.74976400  0.37287200  0.99704700  1
  Fe  Fe9  1  0.75358400  0.87893100  0.00350300  1
  Fe  Fe10  1  0.24620800  0.12226300  0.99771000  1
  Fe  Fe11  1  0.75288200  0.96152700  0.59179100  1
  As  As12  1  0.75394400  0.58899000  0.83402500  1
  As  As13  1  0.24585300  0.41114300  0.16452300  1
  As  As14  1  0.74525600  0.07665200  0.83326100  1
  As  As15  1  0.25278600  0.92426900  0.16720200  1
  As  As16  1  0.25430800  0.75967200  0.51787500  1
  As  As17  1  0.75392800  0.24226600  0.48650900  1
loop_
 _atom_site_moment_label
 _atom_site_moment_crystalaxis_x
 _atom_site_moment_crystalaxis_y
 _atom_site_moment_crystalaxis_z
  Ca0  0.00000489  0.00000337  -0.00099938
  Ca1  -0.00012227  -0.00008415  0.02498450
  Fe2  0.01716176  0.01181128  -3.50682432
  Fe3  0.01713242  0.01179109  -3.50082804
  Fe4  0.01588527  0.01093276  -3.24598615
  Fe5  0.01605155  0.01104720  -3.27996507
  Fe6  0.01466746  0.01009463  -2.99714053
  Fe7  -0.01534728  -0.01056250  3.13605435
  Fe8  -0.01543531  -0.01062309  3.15404319
  Fe9  -0.01528370  -0.01051874  3.12306241
  Fe10  -0.01527881  -0.01051538  3.12206303
  Fe11  -0.01444248  -0.00993979  2.95116905
  As12  0.00006358  0.00004376  -0.01299194
  As13  0.00004402  0.00003029  -0.00899442
  As14  0.00006847  0.00004712  -0.01399132
  As15  0.00005380  0.00003703  -0.01099318
  As16  -0.00006358  -0.00004376  0.01299194
  As17  0.00002445  0.00001683  -0.00499690
