# generated using pymatgen
data_Mg(Mo3Se4)2
_symmetry_space_group_name_H-M   'P 1'
_cell_length_a   6.85990701
_cell_length_b   6.97075566
_cell_length_c   6.87136542
_cell_angle_alpha   90.64907723
_cell_angle_beta   95.46713303
_cell_angle_gamma   96.32171541
_symmetry_Int_Tables_number   1
_chemical_formula_structural   Mg(Mo3Se4)2
_chemical_formula_sum   'Mg1 Mo6 Se8'
_cell_volume   325.01732993
_cell_formula_units_Z   1
loop_
 _symmetry_equiv_pos_site_id
 _symmetry_equiv_pos_as_xyz
  1  'x, y, z'
loop_
 _atom_site_type_symbol
 _atom_site_label
 _atom_site_symmetry_multiplicity
 _atom_site_fract_x
 _atom_site_fract_y
 _atom_site_fract_z
 _atom_site_occupancy
  Mg  Mg0  1  0.86511200  0.08805800  0.00403500  1
  Mo  Mo1  1  0.46332200  0.76778000  0.58388300  1
  Mo  Mo2  1  0.54179900  0.23266300  0.41909700  1
  Mo  Mo3  1  0.76056100  0.58896500  0.45433100  1
  Mo  Mo4  1  0.58433400  0.45243000  0.75825700  1
  Mo  Mo5  1  0.40936800  0.55132500  0.24027900  1
  Mo  Mo6  1  0.23979700  0.40658700  0.54331500  1
  Se  Se7  1  0.80335600  0.77893300  0.78216700  1
  Se  Se8  1  0.20667200  0.21284500  0.21394800  1
  Se  Se9  1  0.87236200  0.27011500  0.63664700  1
  Se  Se10  1  0.13054800  0.72312300  0.37246700  1
  Se  Se11  1  0.63120000  0.88279800  0.26624700  1
  Se  Se12  1  0.37596900  0.11467000  0.73052300  1
  Se  Se13  1  0.28040700  0.61501700  0.86359800  1
  Se  Se14  1  0.71919200  0.38969000  0.13220100  1
loop_
 _atom_site_moment_label
 _atom_site_moment_crystalaxis_x
 _atom_site_moment_crystalaxis_y
 _atom_site_moment_crystalaxis_z
  Mo1  -0.00664343  0.00164522  -0.60057359
  Mo2  0.00684273  -0.00169458  0.61859079
  Mo3  -0.00386426  0.00095697  -0.34933364
  Mo4  0.00483863  -0.00119827  0.43741776
  Mo5  0.00404142  -0.00100084  0.36534893
  Mo6  -0.00553619  0.00137102  -0.50047799
  Se7  -0.00002214  0.00000548  -0.00200191
  Se8  0.00006643  -0.00001645  0.00600574
  Se9  -0.00002214  0.00000548  -0.00200191
  Se10  -0.00001107  0.00000274  -0.00100096
  Se11  -0.00003322  0.00000823  -0.00300287
  Se12  0.00013287  -0.00003290  0.01201147
  Se13  0.00008858  -0.00002194  0.00800765
  Se14  0.00002214  -0.00000548  0.00200191
