# generated using pymatgen
data_Rb(CrS2)2
_symmetry_space_group_name_H-M   'P 1'
_cell_length_a   3.54727323
_cell_length_b   5.92201336
_cell_length_c   8.62734187
_cell_angle_alpha   107.43873767
_cell_angle_beta   101.87003879
_cell_angle_gamma   89.99156308
_symmetry_Int_Tables_number   1
_chemical_formula_structural   Rb(CrS2)2
_chemical_formula_sum   'Rb1 Cr2 S4'
_cell_volume   168.83992604
_cell_formula_units_Z   1
loop_
 _symmetry_equiv_pos_site_id
 _symmetry_equiv_pos_as_xyz
  1  'x, y, z'
loop_
 _atom_site_type_symbol
 _atom_site_label
 _atom_site_symmetry_multiplicity
 _atom_site_fract_x
 _atom_site_fract_y
 _atom_site_fract_z
 _atom_site_occupancy
  Rb  Rb0  1  0.49999600  0.50000500  0.00000100  1
  Cr  Cr1  1  0.75139200  0.75743700  0.50297400  1
  Cr  Cr2  1  0.24861600  0.24252500  0.49701700  1
  S  S3  1  0.33662800  0.98865100  0.67319800  1
  S  S4  1  0.66336900  0.01135200  0.32680300  1
  S  S5  1  0.83282000  0.48472700  0.66537800  1
  S  S6  1  0.16717900  0.51530200  0.33462800  1
loop_
 _atom_site_moment_label
 _atom_site_moment_crystalaxis_x
 _atom_site_moment_crystalaxis_y
 _atom_site_moment_crystalaxis_z
  Rb0  -0.00000251  -0.00004118  -0.00101209
  Cr1  0.00767510  0.12604268  3.09799928
  Cr2  0.00767260  0.12600150  3.09698719
  S3  -0.00056416  -0.00926482  -0.22771965
  S4  -0.00056416  -0.00926482  -0.22771965
  S5  -0.00053407  -0.00877069  -0.21557460
  S6  -0.00053157  -0.00872952  -0.21456251
