# generated using pymatgen
data_NaMnAs
_symmetry_space_group_name_H-M   'P 1'
_cell_length_a   4.34153800
_cell_length_b   4.34072700
_cell_length_c   14.37991200
_cell_angle_alpha   90.00002515
_cell_angle_beta   90.00002913
_cell_angle_gamma   90.00454023
_symmetry_Int_Tables_number   1
_chemical_formula_structural   NaMnAs
_chemical_formula_sum   'Na4 Mn4 As4'
_cell_volume   270.99564209
_cell_formula_units_Z   4
loop_
 _symmetry_equiv_pos_site_id
 _symmetry_equiv_pos_as_xyz
  1  'x, y, z'
loop_
 _atom_site_type_symbol
 _atom_site_label
 _atom_site_symmetry_multiplicity
 _atom_site_fract_x
 _atom_site_fract_y
 _atom_site_fract_z
 _atom_site_occupancy
  Na  Na0  1  0.50000000  0.00000000  0.32055100  1
  Na  Na1  1  0.50000000  0.00000000  0.82055100  1
  Na  Na2  1  0.00000000  0.50000000  0.17945000  1
  Na  Na3  1  0.00000000  0.50000000  0.67944900  1
  Mn  Mn4  1  0.50000000  0.50000000  0.50001800  1
  Mn  Mn5  1  0.00000000  0.00000000  0.99998200  1
  Mn  Mn6  1  0.50000000  0.50000000  0.00001900  1
  Mn  Mn7  1  0.00000000  0.00000000  0.49998200  1
  As  As8  1  0.50000000  0.00000000  0.10927100  1
  As  As9  1  0.50000000  0.00000000  0.60927100  1
  As  As10  1  0.00000000  0.50000000  0.39072900  1
  As  As11  1  0.00000000  0.50000000  0.89072900  1
loop_
 _atom_site_moment_label
 _atom_site_moment_crystalaxis_x
 _atom_site_moment_crystalaxis_y
 _atom_site_moment_crystalaxis_z
  Mn4  -0.00000125  -0.00000093  -4.47700000
  Mn5  -0.00000125  -0.00000093  -4.47700000
  Mn6  0.00000125  0.00000093  4.47700000
  Mn7  0.00000125  0.00000093  4.47700000
