# generated using pymatgen
data_MnAs
_symmetry_space_group_name_H-M   'P 1'
_cell_length_a   3.88838400
_cell_length_b   6.13650904
_cell_length_c   6.67398404
_cell_angle_alpha   89.98698469
_cell_angle_beta   89.99915196
_cell_angle_gamma   89.99887980
_symmetry_Int_Tables_number   1
_chemical_formula_structural   MnAs
_chemical_formula_sum   'Mn4 As4'
_cell_volume   159.24862031
_cell_formula_units_Z   4
loop_
 _symmetry_equiv_pos_site_id
 _symmetry_equiv_pos_as_xyz
  1  'x, y, z'
loop_
 _atom_site_type_symbol
 _atom_site_label
 _atom_site_symmetry_multiplicity
 _atom_site_fract_x
 _atom_site_fract_y
 _atom_site_fract_z
 _atom_site_occupancy
  Mn  Mn0  1  0.75000300  0.99605600  0.23988400  1
  Mn  Mn1  1  0.24999700  0.00394400  0.76011600  1
  Mn  Mn2  1  0.75000400  0.49607900  0.26011200  1
  Mn  Mn3  1  0.24999600  0.50392100  0.73988700  1
  As  As4  1  0.75000700  0.76100500  0.58335100  1
  As  As5  1  0.24999300  0.23899500  0.41664900  1
  As  As6  1  0.75001000  0.26100300  0.91666300  1
  As  As7  1  0.24999000  0.73899700  0.08333700  1
loop_
 _atom_site_moment_label
 _atom_site_moment_crystalaxis_x
 _atom_site_moment_crystalaxis_y
 _atom_site_moment_crystalaxis_z
  Mn0  -0.00003198  -0.00047842  4.35600008
  Mn1  -0.00003198  -0.00047842  4.35600008
  Mn2  -0.00003198  -0.00047842  4.35600008
  Mn3  -0.00003198  -0.00047842  4.35600008
  As4  0.00000217  0.00003240  -0.29500001
  As5  0.00000217  0.00003240  -0.29500001
  As6  0.00000217  0.00003240  -0.29500001
  As7  0.00000217  0.00003240  -0.29500001
