# generated using pymatgen
data_RbMnP
_symmetry_space_group_name_H-M   'P 1'
_cell_length_a   4.36467500
_cell_length_b   4.36467500
_cell_length_c   10.89618100
_cell_angle_alpha   89.99998161
_cell_angle_beta   89.99983710
_cell_angle_gamma   89.99997375
_symmetry_Int_Tables_number   1
_chemical_formula_structural   RbMnP
_chemical_formula_sum   'Rb2 Mn2 P2'
_cell_volume   207.57647419
_cell_formula_units_Z   2
loop_
 _symmetry_equiv_pos_site_id
 _symmetry_equiv_pos_as_xyz
  1  'x, y, z'
loop_
 _atom_site_type_symbol
 _atom_site_label
 _atom_site_symmetry_multiplicity
 _atom_site_fract_x
 _atom_site_fract_y
 _atom_site_fract_z
 _atom_site_occupancy
  Rb  Rb0  1  0.99999800  0.50000000  0.27246100  1
  Rb  Rb1  1  0.50000100  0.00000100  0.72754000  1
  Mn  Mn2  1  0.50001200  0.50000600  0.00000100  1
  Mn  Mn3  1  0.99998800  0.99999500  0.99999800  1
  P  P4  1  0.00000000  0.50000000  0.87073800  1
  P  P5  1  0.50000200  0.99999800  0.12926200  1
loop_
 _atom_site_moment_label
 _atom_site_moment_crystalaxis_x
 _atom_site_moment_crystalaxis_y
 _atom_site_moment_crystalaxis_z
  Mn2  0.00000656  0.00000041  -4.46800000
  Mn3  -0.00000656  -0.00000041  4.46800000
