# generated using pymatgen
data_LiCoAs
_symmetry_space_group_name_H-M   'P 1'
_cell_length_a   5.46647423
_cell_length_b   5.32375463
_cell_length_c   6.02921600
_cell_angle_alpha   89.99969477
_cell_angle_beta   90.00069154
_cell_angle_gamma   90.00033047
_symmetry_Int_Tables_number   1
_chemical_formula_structural   LiCoAs
_chemical_formula_sum   'Li4 Co4 As4'
_cell_volume   175.46325398
_cell_formula_units_Z   4
loop_
 _symmetry_equiv_pos_site_id
 _symmetry_equiv_pos_as_xyz
  1  'x, y, z'
loop_
 _atom_site_type_symbol
 _atom_site_label
 _atom_site_symmetry_multiplicity
 _atom_site_fract_x
 _atom_site_fract_y
 _atom_site_fract_z
 _atom_site_occupancy
  Li  Li0  1  0.25003000  0.25001100  0.67311100  1
  Li  Li1  1  0.74996300  0.74999200  0.67311300  1
  Li  Li2  1  0.25003600  0.74999000  0.32688800  1
  Li  Li3  1  0.74996700  0.25001000  0.32688700  1
  Co  Co4  1  0.00000100  0.50000100  0.00000100  1
  Co  Co5  1  0.50000000  0.49999900  0.99999900  1
  Co  Co6  1  0.50000000  0.00000100  0.00000200  1
  Co  Co7  1  0.00000000  0.99999800  0.99999800  1
  As  As8  1  0.25001000  0.74996500  0.77575000  1
  As  As9  1  0.74998800  0.25003700  0.77575100  1
  As  As10  1  0.25001300  0.25003400  0.22425000  1
  As  As11  1  0.74999100  0.74996300  0.22425000  1
loop_
 _atom_site_moment_label
 _atom_site_moment_crystalaxis_x
 _atom_site_moment_crystalaxis_y
 _atom_site_moment_crystalaxis_z
  Co4  -0.00000462  0.00000200  -0.74300000
  Co5  -0.00000464  0.00000201  -0.74700000
  Co6  0.00000464  -0.00000201  0.74700000
  Co7  0.00000462  -0.00000201  0.74400000
