# generated using pymatgen
data_Cs2Mn3S4
_symmetry_space_group_name_H-M   'P 1'
_cell_length_a   6.12654767
_cell_length_b   9.78756883
_cell_length_c   9.78765568
_cell_angle_alpha   73.44444390
_cell_angle_beta   108.23271870
_cell_angle_gamma   108.23178460
_symmetry_Int_Tables_number   1
_chemical_formula_structural   Cs2Mn3S4
_chemical_formula_sum   'Cs4 Mn6 S8'
_cell_volume   517.94893023
_cell_formula_units_Z   2
loop_
 _symmetry_equiv_pos_site_id
 _symmetry_equiv_pos_as_xyz
  1  'x, y, z'
loop_
 _atom_site_type_symbol
 _atom_site_label
 _atom_site_symmetry_multiplicity
 _atom_site_fract_x
 _atom_site_fract_y
 _atom_site_fract_z
 _atom_site_occupancy
  Cs  Cs0  1  0.23725900  0.12029000  0.87973500  1
  Cs  Cs1  1  0.73725600  0.37972600  0.62029200  1
  Cs  Cs2  1  0.26274400  0.62026600  0.37971100  1
  Cs  Cs3  1  0.76274500  0.87970700  0.12027400  1
  Mn  Mn4  1  0.24999700  0.75001200  0.74999500  1
  Mn  Mn5  1  0.74999700  0.97839900  0.52160500  1
  Mn  Mn6  1  0.75000400  0.52160800  0.97839600  1
  Mn  Mn7  1  0.75000600  0.24998800  0.25001100  1
  Mn  Mn8  1  0.24998900  0.47840000  0.02159300  1
  Mn  Mn9  1  0.25000400  0.02160300  0.47839000  1
  S  S10  1  0.62804100  0.48111100  0.21130000  1
  S  S11  1  0.43567900  0.01886200  0.28871400  1
  S  S12  1  0.87195200  0.28869400  0.01888600  1
  S  S13  1  0.06432500  0.21128200  0.48113800  1
  S  S14  1  0.12805100  0.71131100  0.98111800  1
  S  S15  1  0.93568200  0.78871700  0.51886700  1
  S  S16  1  0.56432100  0.98113500  0.71128600  1
  S  S17  1  0.37195100  0.51888800  0.78869300  1
loop_
 _atom_site_moment_label
 _atom_site_moment_crystalaxis_x
 _atom_site_moment_crystalaxis_y
 _atom_site_moment_crystalaxis_z
  Mn4  -2.85649655  0.03038206  -4.55831115
  Mn5  -2.83581093  0.03016204  -4.52530165
  Mn6  -2.83581093  0.03016204  -4.52530165
  Mn7  2.85649655  -0.03038206  4.55831115
  Mn8  2.83581093  -0.03016204  4.52530165
  Mn9  2.83581093  -0.03016204  4.52530165
  S10  -0.00376102  0.00004000  -0.00600173
  S11  -0.00376102  0.00004000  -0.00600173
  S12  -0.00376102  0.00004000  -0.00600173
  S13  -0.00376102  0.00004000  -0.00600173
  S14  0.00376102  -0.00004000  0.00600173
  S15  0.00376102  -0.00004000  0.00600173
  S16  0.00376102  -0.00004000  0.00600173
  S17  0.00376102  -0.00004000  0.00600173
