# generated using pymatgen
data_NaMnP
_symmetry_space_group_name_H-M   'P 1'
_cell_length_a   4.23179105
_cell_length_b   4.23231201
_cell_length_c   13.88347974
_cell_angle_alpha   89.99071328
_cell_angle_beta   89.97958985
_cell_angle_gamma   90.00938228
_symmetry_Int_Tables_number   1
_chemical_formula_structural   NaMnP
_chemical_formula_sum   'Na4 Mn4 P4'
_cell_volume   248.65671064
_cell_formula_units_Z   4
loop_
 _symmetry_equiv_pos_site_id
 _symmetry_equiv_pos_as_xyz
  1  'x, y, z'
loop_
 _atom_site_type_symbol
 _atom_site_label
 _atom_site_symmetry_multiplicity
 _atom_site_fract_x
 _atom_site_fract_y
 _atom_site_fract_z
 _atom_site_occupancy
  Na  Na0  1  0.50021800  0.00001400  0.31898800  1
  Na  Na1  1  0.50022700  0.00008000  0.81821800  1
  Na  Na2  1  0.99974500  0.49991600  0.18177500  1
  Na  Na3  1  0.99974200  0.49995100  0.68101200  1
  Mn  Mn4  1  0.49946100  0.49977100  0.50013800  1
  Mn  Mn5  1  0.99981900  0.00011500  0.00000000  1
  Mn  Mn6  1  0.50018800  0.49994700  0.00000600  1
  Mn  Mn7  1  0.00059900  0.00019800  0.49986500  1
  P  P8  1  0.49921100  0.99971400  0.10609900  1
  P  P9  1  0.49995800  0.99962400  0.60579600  1
  P  P10  1  0.00005900  0.50036500  0.39420600  1
  P  P11  1  0.00077400  0.50030400  0.89389900  1
loop_
 _atom_site_moment_label
 _atom_site_moment_crystalaxis_x
 _atom_site_moment_crystalaxis_y
 _atom_site_moment_crystalaxis_z
  Mn4  0.00211160  0.00068159  -4.42900031
  Mn5  0.00211255  0.00068190  -4.43100031
  Mn6  -0.00211255  -0.00068190  4.43100031
  Mn7  -0.00211160  -0.00068159  4.42900031
