# generated using pymatgen
data_K2Mn3S4
_symmetry_space_group_name_H-M   'P 1'
_cell_length_a   6.03309500
_cell_length_b   7.40951025
_cell_length_c   10.82462274
_cell_angle_alpha   107.41646597
_cell_angle_beta   89.99994520
_cell_angle_gamma   89.99998241
_symmetry_Int_Tables_number   1
_chemical_formula_structural   K2Mn3S4
_chemical_formula_sum   'K4 Mn6 S8'
_cell_volume   461.70127125
_cell_formula_units_Z   2
loop_
 _symmetry_equiv_pos_site_id
 _symmetry_equiv_pos_as_xyz
  1  'x, y, z'
loop_
 _atom_site_type_symbol
 _atom_site_label
 _atom_site_symmetry_multiplicity
 _atom_site_fract_x
 _atom_site_fract_y
 _atom_site_fract_z
 _atom_site_occupancy
  K  K0  1  0.49541300  0.75000000  0.25000100  1
  K  K1  1  0.50458700  0.25000000  0.75000000  1
  K  K2  1  0.00000400  0.00000500  0.49999400  1
  K  K3  1  0.00000600  0.49999700  0.00000700  1
  Mn  Mn4  1  0.24928500  0.75000000  0.75000000  1
  Mn  Mn5  1  0.75009900  0.52641100  0.52537300  1
  Mn  Mn6  1  0.75010000  0.97358900  0.97462700  1
  Mn  Mn7  1  0.75071500  0.25000000  0.25000000  1
  Mn  Mn8  1  0.24990000  0.47359200  0.47462900  1
  Mn  Mn9  1  0.24990100  0.02640600  0.02537000  1
  S  S10  1  0.53418200  0.27437300  0.06183800  1
  S  S11  1  0.53418200  0.22562700  0.43816100  1
  S  S12  1  0.46580600  0.77437500  0.56183300  1
  S  S13  1  0.46580600  0.72562500  0.93816700  1
  S  S14  1  0.03199700  0.04432800  0.83207000  1
  S  S15  1  0.03199600  0.45567200  0.66793000  1
  S  S16  1  0.96801100  0.54432100  0.33207100  1
  S  S17  1  0.96801100  0.95567900  0.16792900  1
loop_
 _atom_site_moment_label
 _atom_site_moment_crystalaxis_x
 _atom_site_moment_crystalaxis_y
 _atom_site_moment_crystalaxis_z
  Mn4  0.00000211  -0.03805048  -4.54724378
  Mn5  0.00000210  -0.03786593  -4.52518925
  Mn6  0.00000210  -0.03786593  -4.52518925
  Mn7  -0.00000211  0.03805048  4.54724378
  Mn8  -0.00000210  0.03786593  4.52518925
  Mn9  -0.00000210  0.03786593  4.52518925
  S10  0.00000000  -0.00005033  -0.00601487
  S11  0.00000000  -0.00005033  -0.00601487
  S12  0.00000000  0.00005033  0.00601487
  S13  0.00000000  0.00005033  0.00601487
  S14  0.00000000  0.00005033  0.00601487
  S15  0.00000000  0.00005033  0.00601487
  S16  0.00000000  -0.00005033  -0.00601487
  S17  0.00000000  -0.00005033  -0.00601487
