# generated using pymatgen
data_NaFeS2
_symmetry_space_group_name_H-M   'P 1'
_cell_length_a   5.77754149
_cell_length_b   7.25097584
_cell_length_c   12.09379379
_cell_angle_alpha   86.18210619
_cell_angle_beta   76.18247707
_cell_angle_gamma   66.53103042
_symmetry_Int_Tables_number   1
_chemical_formula_structural   NaFeS2
_chemical_formula_sum   'Na4 Fe4 S8'
_cell_volume   451.05118984
_cell_formula_units_Z   4
loop_
 _symmetry_equiv_pos_site_id
 _symmetry_equiv_pos_as_xyz
  1  'x, y, z'
loop_
 _atom_site_type_symbol
 _atom_site_label
 _atom_site_symmetry_multiplicity
 _atom_site_fract_x
 _atom_site_fract_y
 _atom_site_fract_z
 _atom_site_occupancy
  Na  Na0  1  0.70019900  0.44964900  0.14989300  1
  Na  Na1  1  0.70020200  0.94965000  0.64989200  1
  Na  Na2  1  0.29972600  0.55034100  0.85011900  1
  Na  Na3  1  0.29972700  0.05034200  0.35012100  1
  Fe  Fe4  1  0.00007700  0.50000100  0.50000100  1
  Fe  Fe5  1  0.49993500  0.00001400  0.00000400  1
  Fe  Fe6  1  0.00007400  0.00000000  0.00000100  1
  Fe  Fe7  1  0.49993600  0.50001500  0.50000400  1
  S  S8  1  0.64044700  0.25711200  0.96421400  1
  S  S9  1  0.64044400  0.75711800  0.46421700  1
  S  S10  1  0.13839700  0.57472300  0.64641500  1
  S  S11  1  0.13839300  0.07471400  0.14641900  1
  S  S12  1  0.86168500  0.74289400  0.03576500  1
  S  S13  1  0.86168800  0.24288800  0.53576100  1
  S  S14  1  0.35954000  0.42526500  0.35359000  1
  S  S15  1  0.35953100  0.92527300  0.85358600  1
loop_
 _atom_site_moment_label
 _atom_site_moment_crystalaxis_x
 _atom_site_moment_crystalaxis_y
 _atom_site_moment_crystalaxis_z
  Na0  0.00156615  -0.00098819  -0.00168606
  Na1  -0.00156615  0.00098819  0.00168606
  Na2  0.00156615  -0.00098819  -0.00168606
  Na3  -0.00156615  0.00098819  0.00168606
  Fe4  2.98508319  -1.88349009  -3.21363628
  Fe5  2.99369701  -1.88892514  -3.22290962
  Fe6  -2.98508319  1.88349009  3.21363628
  Fe7  -2.99369701  1.88892514  3.22290962
  S8  -0.00156615  0.00098819  0.00168606
  S9  0.00156615  -0.00098819  -0.00168606
  S10  0.00156615  -0.00098819  -0.00168606
  S11  -0.00156615  0.00098819  0.00168606
  S12  -0.00156615  0.00098819  0.00168606
  S13  0.00156615  -0.00098819  -0.00168606
  S14  0.00156615  -0.00098819  -0.00168606
  S15  -0.00156615  0.00098819  0.00168606
