# generated using pymatgen
data_Sr(MnGe)2
_symmetry_space_group_name_H-M   'P 1'
_cell_length_a   4.47417637
_cell_length_b   4.47417555
_cell_length_c   6.47844368
_cell_angle_alpha   69.78159000
_cell_angle_beta   110.21837376
_cell_angle_gamma   89.99893058
_symmetry_Int_Tables_number   1
_chemical_formula_structural   Sr(MnGe)2
_chemical_formula_sum   'Sr1 Mn2 Ge2'
_cell_volume   113.14169736
_cell_formula_units_Z   1
loop_
 _symmetry_equiv_pos_site_id
 _symmetry_equiv_pos_as_xyz
  1  'x, y, z'
loop_
 _atom_site_type_symbol
 _atom_site_label
 _atom_site_symmetry_multiplicity
 _atom_site_fract_x
 _atom_site_fract_y
 _atom_site_fract_z
 _atom_site_occupancy
  Sr  Sr0  1  0.99999900  0.00000100  0.99999800  1
  Mn  Mn1  1  0.74976800  0.74976800  0.50000100  1
  Mn  Mn2  1  0.25023200  0.25023200  0.50000000  1
  Ge  Ge3  1  0.61531700  0.38468300  0.23032600  1
  Ge  Ge4  1  0.38468400  0.61531600  0.76967500  1
loop_
 _atom_site_moment_label
 _atom_site_moment_crystalaxis_x
 _atom_site_moment_crystalaxis_y
 _atom_site_moment_crystalaxis_z
  Mn1  -0.16663280  2.97972553  -4.55380995
  Mn2  0.16663280  -2.97972553  4.55380995
