# generated using pymatgen
data_Na5Co2S5
_symmetry_space_group_name_H-M   'P 1'
_cell_length_a   5.71536282
_cell_length_b   7.24154267
_cell_length_c   13.33967952
_cell_angle_alpha   89.98528029
_cell_angle_beta   89.99944581
_cell_angle_gamma   113.23779454
_symmetry_Int_Tables_number   1
_chemical_formula_structural   Na5Co2S5
_chemical_formula_sum   'Na10 Co4 S10'
_cell_volume   507.31399894
_cell_formula_units_Z   2
loop_
 _symmetry_equiv_pos_site_id
 _symmetry_equiv_pos_as_xyz
  1  'x, y, z'
loop_
 _atom_site_type_symbol
 _atom_site_label
 _atom_site_symmetry_multiplicity
 _atom_site_fract_x
 _atom_site_fract_y
 _atom_site_fract_z
 _atom_site_occupancy
  Na  Na0  1  0.92921100  0.00000800  0.99947800  1
  Na  Na1  1  0.42919700  0.99998900  0.50052700  1
  Na  Na2  1  0.15470400  0.60919500  0.99964000  1
  Na  Na3  1  0.65488900  0.60913800  0.50044000  1
  Na  Na4  1  0.54577200  0.39087500  0.99956200  1
  Na  Na5  1  0.04551700  0.39078000  0.50036500  1
  Na  Na6  1  0.35050300  0.99999700  0.19521900  1
  Na  Na7  1  0.85031900  0.00000200  0.69532800  1
  Na  Na8  1  0.85051600  0.00000500  0.30478400  1
  Na  Na9  1  0.35031400  0.99999600  0.80467200  1
  Co  Co10  1  0.98543300  0.50000300  0.75000300  1
  Co  Co11  1  0.98580700  0.49999600  0.25000500  1
  Co  Co12  1  0.48484700  0.49996800  0.24999800  1
  Co  Co13  1  0.48518800  0.50000000  0.74999500  1
  S  S14  1  0.44851500  0.00001500  0.00027700  1
  S  S15  1  0.94848200  0.99994500  0.49973800  1
  S  S16  1  0.14328700  0.31400700  0.15698000  1
  S  S17  1  0.64198000  0.31378200  0.65692500  1
  S  S18  1  0.32934500  0.68604000  0.34298200  1
  S  S19  1  0.82824100  0.68624800  0.84307300  1
  S  S20  1  0.82733800  0.68578100  0.15710300  1
  S  S21  1  0.32872100  0.68635400  0.65687400  1
  S  S22  1  0.64151700  0.31418800  0.34288900  1
  S  S23  1  0.14235400  0.31368700  0.84314400  1
loop_
 _atom_site_moment_label
 _atom_site_moment_crystalaxis_x
 _atom_site_moment_crystalaxis_y
 _atom_site_moment_crystalaxis_z
  Na2  0.00076851  -0.00000032  0.00184640
  Na3  -0.00076851  0.00000032  -0.00184640
  Na4  -0.00076851  0.00000032  -0.00184640
  Na5  0.00076851  -0.00000032  0.00184640
  Co10  -0.92297803  0.00038254  -2.21752061
  Co11  -0.83383111  0.00034559  -2.00333877
  Co12  0.83344686  -0.00034543  2.00241557
  Co13  0.74468419  -0.00030864  1.78915693
  S14  -0.00806933  0.00000334  -0.01938715
  S15  -0.00806933  0.00000334  -0.01938715
  S16  0.00076851  -0.00000032  0.00184640
  S17  -0.03112457  0.00001290  -0.07477900
  S18  0.00076851  -0.00000032  0.00184640
  S19  -0.03112457  0.00001290  -0.07477900
  S21  -0.03035606  0.00001258  -0.07293261
  S23  -0.03035606  0.00001258  -0.07293261
