# generated using pymatgen
data_V2Ga5
_symmetry_space_group_name_H-M   'P 1'
_cell_length_a   2.87204400
_cell_length_b   9.17865410
_cell_length_c   9.17931109
_cell_angle_alpha   89.85750617
_cell_angle_beta   89.99919529
_cell_angle_gamma   89.99999950
_symmetry_Int_Tables_number   1
_chemical_formula_structural   V2Ga5
_chemical_formula_sum   'V4 Ga10'
_cell_volume   241.97964668
_cell_formula_units_Z   2
loop_
 _symmetry_equiv_pos_site_id
 _symmetry_equiv_pos_as_xyz
  1  'x, y, z'
loop_
 _atom_site_type_symbol
 _atom_site_label
 _atom_site_symmetry_multiplicity
 _atom_site_fract_x
 _atom_site_fract_y
 _atom_site_fract_z
 _atom_site_occupancy
  V  V0  1  0.49999700  0.18061600  0.31935700  1
  V  V1  1  0.50000100  0.81937400  0.68062200  1
  V  V2  1  0.50000900  0.68037500  0.18040200  1
  V  V3  1  0.49999800  0.31960300  0.81962100  1
  Ga  Ga4  1  0.99999700  0.50011000  0.00011500  1
  Ga  Ga5  1  0.99999800  0.00009800  0.49991100  1
  Ga  Ga6  1  0.99999700  0.55880200  0.70500200  1
  Ga  Ga7  1  0.99999800  0.44113700  0.29495200  1
  Ga  Ga8  1  0.00000000  0.05872200  0.79488300  1
  Ga  Ga9  1  0.00000200  0.94126100  0.20513800  1
  Ga  Ga10  1  0.00001100  0.29485400  0.55867500  1
  Ga  Ga11  1  0.99999400  0.70509500  0.44119400  1
  Ga  Ga12  1  0.00000000  0.20499800  0.05889300  1
  Ga  Ga13  1  0.99999700  0.79495300  0.94123500  1
loop_
 _atom_site_moment_label
 _atom_site_moment_crystalaxis_x
 _atom_site_moment_crystalaxis_y
 _atom_site_moment_crystalaxis_z
  V0  -2.47900000  -0.00000002  0.00001726
  V1  -2.48100000  -0.00000002  0.00001728
  V2  2.47000000  0.00000002  -0.00001720
  V3  2.47300000  0.00000002  -0.00001722
  Ga4  -0.10600000  0.00000000  0.00000074
  Ga5  0.10400000  0.00000000  -0.00000072
  Ga6  -0.00800000  0.00000000  0.00000006
  Ga7  -0.00800000  0.00000000  0.00000006
  Ga8  0.00500000  0.00000000  -0.00000003
  Ga9  0.00500000  0.00000000  -0.00000003
  Ga10  0.00500000  0.00000000  -0.00000003
  Ga11  0.00500000  0.00000000  -0.00000003
  Ga12  -0.00800000  0.00000000  0.00000006
  Ga13  -0.00800000  0.00000000  0.00000006
