# generated using pymatgen
data_Mn2Ge
_symmetry_space_group_name_H-M   'P 1'
_cell_length_a   4.58620201
_cell_length_b   5.96736604
_cell_length_c   4.58947204
_cell_angle_alpha   89.98609189
_cell_angle_beta   120.02305281
_cell_angle_gamma   90.00679667
_symmetry_Int_Tables_number   1
_chemical_formula_structural   Mn2Ge
_chemical_formula_sum   'Mn4 Ge2'
_cell_volume   108.74975168
_cell_formula_units_Z   2
loop_
 _symmetry_equiv_pos_site_id
 _symmetry_equiv_pos_as_xyz
  1  'x, y, z'
loop_
 _atom_site_type_symbol
 _atom_site_label
 _atom_site_symmetry_multiplicity
 _atom_site_fract_x
 _atom_site_fract_y
 _atom_site_fract_z
 _atom_site_occupancy
  Mn  Mn0  1  0.66655800  0.75000400  0.33327600  1
  Mn  Mn1  1  0.33344100  0.24999600  0.66672400  1
  Mn  Mn2  1  0.00000100  0.00000000  0.00000200  1
  Mn  Mn3  1  0.99999900  0.49999900  0.99999900  1
  Ge  Ge4  1  0.66638300  0.25000300  0.33318800  1
  Ge  Ge5  1  0.33361700  0.74999700  0.66681200  1
loop_
 _atom_site_moment_label
 _atom_site_moment_crystalaxis_x
 _atom_site_moment_crystalaxis_y
 _atom_site_moment_crystalaxis_z
  Mn0  0.00000516  -4.44400010  0.00052165
  Mn1  0.00000516  -4.44400010  0.00052165
  Mn2  -0.00000516  4.44700010  -0.00052200
  Mn3  -0.00000516  4.44700010  -0.00052200
  Ge4  -0.00000005  0.04000000  -0.00000470
  Ge5  -0.00000005  0.04000000  -0.00000470
