# generated using pymatgen
data_NiSe2
_symmetry_space_group_name_H-M   'P 1'
_cell_length_a   6.16848300
_cell_length_b   6.14198600
_cell_length_c   6.15460200
_cell_angle_alpha   90.00052186
_cell_angle_beta   90.00315235
_cell_angle_gamma   90.00039095
_symmetry_Int_Tables_number   1
_chemical_formula_structural   NiSe2
_chemical_formula_sum   'Ni4 Se8'
_cell_volume   233.17778237
_cell_formula_units_Z   4
loop_
 _symmetry_equiv_pos_site_id
 _symmetry_equiv_pos_as_xyz
  1  'x, y, z'
loop_
 _atom_site_type_symbol
 _atom_site_label
 _atom_site_symmetry_multiplicity
 _atom_site_fract_x
 _atom_site_fract_y
 _atom_site_fract_z
 _atom_site_occupancy
  Ni  Ni0  1  0.50000100  0.00000000  0.50000100  1
  Ni  Ni1  1  0.50000000  0.50000000  0.00000000  1
  Ni  Ni2  1  0.00000000  0.00000000  0.00000000  1
  Ni  Ni3  1  0.99999900  0.49999900  0.49999900  1
  Se  Se4  1  0.38693700  0.38787600  0.38757300  1
  Se  Se5  1  0.61306300  0.88788000  0.11242900  1
  Se  Se6  1  0.11304800  0.61212900  0.88756800  1
  Se  Se7  1  0.88695300  0.11212900  0.61243400  1
  Se  Se8  1  0.61306300  0.61212400  0.61242700  1
  Se  Se9  1  0.38693800  0.11212000  0.88757100  1
  Se  Se10  1  0.88695100  0.38787200  0.11243200  1
  Se  Se11  1  0.11304800  0.88787100  0.38756700  1
loop_
 _atom_site_moment_label
 _atom_site_moment_crystalaxis_x
 _atom_site_moment_crystalaxis_y
 _atom_site_moment_crystalaxis_z
  Ni0  -0.00000526  -1.53700000  -0.00000701
  Ni1  -0.00000526  -1.53700000  -0.00000701
  Ni2  0.00000526  1.53700000  0.00000701
  Ni3  0.00000526  1.53700000  0.00000701
  Se4  -0.00000013  -0.03700000  -0.00000017
  Se5  -0.00000013  -0.03700000  -0.00000017
  Se6  0.00000013  0.03700000  0.00000017
  Se7  0.00000013  0.03700000  0.00000017
  Se8  -0.00000013  -0.03700000  -0.00000017
  Se9  -0.00000013  -0.03700000  -0.00000017
  Se10  0.00000013  0.03700000  0.00000017
  Se11  0.00000013  0.03700000  0.00000017
