# generated using pymatgen
data_BaMnSb2
_symmetry_space_group_name_H-M   'P 1'
_cell_length_a   4.57305785
_cell_length_b   12.84949262
_cell_length_c   4.57252804
_cell_angle_alpha   79.78364229
_cell_angle_beta   90.00733581
_cell_angle_gamma   100.21841963
_symmetry_Int_Tables_number   1
_chemical_formula_structural   BaMnSb2
_chemical_formula_sum   'Ba2 Mn2 Sb4'
_cell_volume   260.09798563
_cell_formula_units_Z   2
loop_
 _symmetry_equiv_pos_site_id
 _symmetry_equiv_pos_as_xyz
  1  'x, y, z'
loop_
 _atom_site_type_symbol
 _atom_site_label
 _atom_site_symmetry_multiplicity
 _atom_site_fract_x
 _atom_site_fract_y
 _atom_site_fract_z
 _atom_site_occupancy
  Ba  Ba0  1  0.88848400  0.77574700  0.11150900  1
  Ba  Ba1  1  0.11151600  0.22425300  0.88849000  1
  Mn  Mn2  1  0.74990100  0.49998900  0.74991200  1
  Mn  Mn3  1  0.25009900  0.50001100  0.25008900  1
  Sb  Sb4  1  0.68082100  0.36014000  0.31918300  1
  Sb  Sb5  1  0.31918000  0.63986000  0.68081800  1
  Sb  Sb6  1  0.99992800  0.00000000  0.50006300  1
  Sb  Sb7  1  0.50007100  0.00000000  0.99993600  1
loop_
 _atom_site_moment_label
 _atom_site_moment_crystalaxis_x
 _atom_site_moment_crystalaxis_y
 _atom_site_moment_crystalaxis_z
  Mn2  -0.00852658  -4.53255755  1.60188386
  Mn3  0.00852658  4.53255755  -1.60188386
