# generated using pymatgen
data_Ni3Se2
_symmetry_space_group_name_H-M   'P 1'
_cell_length_a   4.63836688
_cell_length_b   6.15981536
_cell_length_c   6.20537193
_cell_angle_alpha   90.03205211
_cell_angle_beta   89.99862721
_cell_angle_gamma   89.57727180
_symmetry_Int_Tables_number   1
_chemical_formula_structural   Ni3Se2
_chemical_formula_sum   'Ni6 Se4'
_cell_volume   177.29182901
_cell_formula_units_Z   2
loop_
 _symmetry_equiv_pos_site_id
 _symmetry_equiv_pos_as_xyz
  1  'x, y, z'
loop_
 _atom_site_type_symbol
 _atom_site_label
 _atom_site_symmetry_multiplicity
 _atom_site_fract_x
 _atom_site_fract_y
 _atom_site_fract_z
 _atom_site_occupancy
  Ni  Ni0  1  0.24481600  0.35347900  0.37118200  1
  Ni  Ni1  1  0.25053200  0.87049000  0.88654700  1
  Ni  Ni2  1  0.02364200  0.99828800  0.24985100  1
  Ni  Ni3  1  0.75590500  0.14673500  0.87116100  1
  Ni  Ni4  1  0.74879600  0.62930900  0.38641300  1
  Ni  Ni5  1  0.97634000  0.50181700  0.74994500  1
  Se  Se6  1  0.26190200  0.26543400  0.98584200  1
  Se  Se7  1  0.25857100  0.74085600  0.50649400  1
  Se  Se8  1  0.74091700  0.75925500  0.00664100  1
  Se  Se9  1  0.73857900  0.23433900  0.48592400  1
loop_
 _atom_site_moment_label
 _atom_site_moment_crystalaxis_x
 _atom_site_moment_crystalaxis_y
 _atom_site_moment_crystalaxis_z
  Ni0  0.00949066  -0.77743004  -0.78711011
  Ni1  0.00910451  -0.74579862  -0.75508483
  Ni2  0.01070917  -0.87724475  -0.88816765
  Ni3  -0.00951640  0.77953880  0.78924513
  Ni4  -0.00908735  0.74439278  0.75366149
  Ni5  -0.01070059  0.87654183  0.88745597
  Se6  0.00003432  -0.00281168  -0.00284669
  Se7  -0.00000858  0.00070292  0.00071167
  Se8  0.00000858  -0.00070292  -0.00071167
  Se9  -0.00002574  0.00210876  0.00213502
