# generated using pymatgen
data_Fe3Ge
_symmetry_space_group_name_H-M   'P 1'
_cell_length_a   3.81324893
_cell_length_b   3.81287042
_cell_length_c   3.80764360
_cell_angle_alpha   90.01711111
_cell_angle_beta   89.93806085
_cell_angle_gamma   90.05094342
_symmetry_Int_Tables_number   1
_chemical_formula_structural   Fe3Ge
_chemical_formula_sum   'Fe3 Ge1'
_cell_volume   55.36088827
_cell_formula_units_Z   1
loop_
 _symmetry_equiv_pos_site_id
 _symmetry_equiv_pos_as_xyz
  1  'x, y, z'
loop_
 _atom_site_type_symbol
 _atom_site_label
 _atom_site_symmetry_multiplicity
 _atom_site_fract_x
 _atom_site_fract_y
 _atom_site_fract_z
 _atom_site_occupancy
  Fe  Fe0  1  0.99999800  0.49999700  0.49999900  1
  Fe  Fe1  1  0.49999700  0.50000200  0.00000000  1
  Fe  Fe2  1  0.50000200  0.00000300  0.50000000  1
  Ge  Ge3  1  0.00000300  0.99999800  0.00000000  1
loop_
 _atom_site_moment_label
 _atom_site_moment_crystalaxis_x
 _atom_site_moment_crystalaxis_y
 _atom_site_moment_crystalaxis_z
  Fe0  -0.00171369  0.00047227  3.17100150
  Fe1  -0.00172504  0.00047540  3.19200151
  Fe2  -0.00171261  0.00047197  3.16900149
  Ge3  0.00007350  -0.00002025  -0.13600006
