# generated using pymatgen
data_FeSe
_symmetry_space_group_name_H-M   'P 1'
_cell_length_a   4.17664016
_cell_length_b   4.18073609
_cell_length_c   5.81284805
_cell_angle_alpha   90.00194948
_cell_angle_beta   90.01333988
_cell_angle_gamma   89.73576650
_symmetry_Int_Tables_number   1
_chemical_formula_structural   FeSe
_chemical_formula_sum   'Fe2 Se2'
_cell_volume   101.49955842
_cell_formula_units_Z   2
loop_
 _symmetry_equiv_pos_site_id
 _symmetry_equiv_pos_as_xyz
  1  'x, y, z'
loop_
 _atom_site_type_symbol
 _atom_site_label
 _atom_site_symmetry_multiplicity
 _atom_site_fract_x
 _atom_site_fract_y
 _atom_site_fract_z
 _atom_site_occupancy
  Fe  Fe0  1  0.49997100  0.50008200  0.00021400  1
  Fe  Fe1  1  0.00004400  0.99994600  0.00016500  1
  Se  Se2  1  0.99994600  0.49998700  0.76065800  1
  Se  Se3  1  0.50003900  0.99998500  0.23896300  1
loop_
 _atom_site_moment_label
 _atom_site_moment_crystalaxis_x
 _atom_site_moment_crystalaxis_y
 _atom_site_moment_crystalaxis_z
  Fe0  -0.00046040  -0.00001396  -3.49400008
  Fe1  0.00046040  0.00001396  3.49400008
