# generated using pymatgen
data_RbCr5Se8
_symmetry_space_group_name_H-M   'P 1'
_cell_length_a   3.74319956
_cell_length_b   9.27525536
_cell_length_c   9.81144900
_cell_angle_alpha   104.69368374
_cell_angle_beta   101.00380476
_cell_angle_gamma   90.00028699
_symmetry_Int_Tables_number   1
_chemical_formula_structural   RbCr5Se8
_chemical_formula_sum   'Rb1 Cr5 Se8'
_cell_volume   323.02550537
_cell_formula_units_Z   1
loop_
 _symmetry_equiv_pos_site_id
 _symmetry_equiv_pos_as_xyz
  1  'x, y, z'
loop_
 _atom_site_type_symbol
 _atom_site_label
 _atom_site_symmetry_multiplicity
 _atom_site_fract_x
 _atom_site_fract_y
 _atom_site_fract_z
 _atom_site_occupancy
  Rb  Rb0  1  0.50000100  0.50000000  0.00000000  1
  Cr  Cr1  1  0.00000000  0.00000000  0.00000000  1
  Cr  Cr2  1  0.29549400  0.66637400  0.59091700  1
  Cr  Cr3  1  0.65897700  0.97935700  0.31798300  1
  Cr  Cr4  1  0.34102200  0.02064300  0.68201700  1
  Cr  Cr5  1  0.70450600  0.33362600  0.40908300  1
  Se  Se6  1  0.23863700  0.15699600  0.47729100  1
  Se  Se7  1  0.42466700  0.84695000  0.84944100  1
  Se  Se8  1  0.57533300  0.15305000  0.15055900  1
  Se  Se9  1  0.91381100  0.17131900  0.82782200  1
  Se  Se10  1  0.08619000  0.82868200  0.17217800  1
  Se  Se11  1  0.82895000  0.51104000  0.65784900  1
  Se  Se12  1  0.17105000  0.48896000  0.34215100  1
  Se  Se13  1  0.76136300  0.84300400  0.52270900  1
loop_
 _atom_site_moment_label
 _atom_site_moment_crystalaxis_x
 _atom_site_moment_crystalaxis_y
 _atom_site_moment_crystalaxis_z
  Rb0  -0.00000011  0.00000003  -0.00500001
  Cr1  0.00006817  -0.00002083  3.23600773
  Cr2  0.00006958  -0.00002126  3.30300789
  Cr3  0.00006935  -0.00002119  3.29200786
  Cr4  0.00006935  -0.00002119  3.29200786
  Cr5  0.00006958  -0.00002126  3.30300789
  Se6  -0.00000360  0.00000110  -0.17100041
  Se7  -0.00000419  0.00000128  -0.19900048
  Se8  -0.00000419  0.00000128  -0.19900048
  Se9  -0.00000440  0.00000135  -0.20900050
  Se10  -0.00000440  0.00000135  -0.20900050
  Se11  -0.00000531  0.00000162  -0.25200060
  Se12  -0.00000531  0.00000162  -0.25200060
  Se13  -0.00000360  0.00000110  -0.17100041
