# generated using pymatgen
data_V3Sn
_symmetry_space_group_name_H-M   'P 1'
_cell_length_a   4.87509004
_cell_length_b   6.01511295
_cell_length_c   5.98767134
_cell_angle_alpha   60.15142580
_cell_angle_beta   89.98729722
_cell_angle_gamma   89.98839565
_symmetry_Int_Tables_number   1
_chemical_formula_structural   V3Sn
_chemical_formula_sum   'V6 Sn2'
_cell_volume   152.29149703
_cell_formula_units_Z   2
loop_
 _symmetry_equiv_pos_site_id
 _symmetry_equiv_pos_as_xyz
  1  'x, y, z'
loop_
 _atom_site_type_symbol
 _atom_site_label
 _atom_site_symmetry_multiplicity
 _atom_site_fract_x
 _atom_site_fract_y
 _atom_site_fract_z
 _atom_site_occupancy
  V  V0  1  0.75022000  0.32140600  0.83245800  1
  V  V1  1  0.74973500  0.84127900  0.84501400  1
  V  V2  1  0.25008000  0.15416000  0.16750500  1
  V  V3  1  0.75003900  0.84580200  0.32169600  1
  V  V4  1  0.25000600  0.67856000  0.15383200  1
  V  V5  1  0.24991000  0.15877100  0.68626200  1
  Sn  Sn6  1  0.75000100  0.33298700  0.33011000  1
  Sn  Sn7  1  0.25000800  0.66703500  0.66312300  1
loop_
 _atom_site_moment_label
 _atom_site_moment_crystalaxis_x
 _atom_site_moment_crystalaxis_y
 _atom_site_moment_crystalaxis_z
  V0  -2.55900006  0.00015553  0.00020231
  V1  -2.47800006  0.00015061  0.00019591
  V2  -2.56000006  0.00015559  0.00020239
  V3  2.56000006  -0.00015559  -0.00020239
  V4  2.55900006  -0.00015553  -0.00020231
  V5  2.47800006  -0.00015061  -0.00019591
  Sn6  0.00800000  -0.00000049  -0.00000063
  Sn7  -0.00800000  0.00000049  0.00000063
