# generated using pymatgen
data_CaMnSi
_symmetry_space_group_name_H-M   'P 1'
_cell_length_a   4.30913400
_cell_length_b   4.30843400
_cell_length_c   14.49529900
_cell_angle_alpha   90.00000144
_cell_angle_beta   90.00008985
_cell_angle_gamma   90.00452113
_symmetry_Int_Tables_number   1
_chemical_formula_structural   CaMnSi
_chemical_formula_sum   'Ca4 Mn4 Si4'
_cell_volume   269.11420443
_cell_formula_units_Z   4
loop_
 _symmetry_equiv_pos_site_id
 _symmetry_equiv_pos_as_xyz
  1  'x, y, z'
loop_
 _atom_site_type_symbol
 _atom_site_label
 _atom_site_symmetry_multiplicity
 _atom_site_fract_x
 _atom_site_fract_y
 _atom_site_fract_z
 _atom_site_occupancy
  Ca  Ca0  1  0.00000000  0.50000000  0.16969000  1
  Ca  Ca1  1  0.00000000  0.50000000  0.66969500  1
  Ca  Ca2  1  0.50000100  0.00000000  0.33030700  1
  Ca  Ca3  1  0.50000000  0.00000000  0.83031000  1
  Mn  Mn4  1  0.50000100  0.50000000  0.50003000  1
  Mn  Mn5  1  0.99999800  0.00000300  0.99997300  1
  Mn  Mn6  1  0.50000000  0.49999700  0.00002100  1
  Mn  Mn7  1  0.00000000  0.00000000  0.49997700  1
  Si  Si8  1  0.99999900  0.49999900  0.38748900  1
  Si  Si9  1  0.99999800  0.50000200  0.88749200  1
  Si  Si10  1  0.50000200  0.99999800  0.11250800  1
  Si  Si11  1  0.50000100  0.00000000  0.61251000  1
loop_
 _atom_site_moment_label
 _atom_site_moment_crystalaxis_x
 _atom_site_moment_crystalaxis_y
 _atom_site_moment_crystalaxis_z
  Mn4  0.00000640  0.00000091  -4.41700000
  Mn5  0.00000640  0.00000091  -4.41700000
  Mn6  -0.00000640  -0.00000091  4.41700000
  Mn7  -0.00000640  -0.00000091  4.41700000
