# generated using pymatgen
data_CaMnGe
_symmetry_space_group_name_H-M   'P 1'
_cell_length_a   4.35309400
_cell_length_b   4.35270300
_cell_length_c   14.60956100
_cell_angle_alpha   90.00006162
_cell_angle_beta   90.00018233
_cell_angle_gamma   90.00434368
_symmetry_Int_Tables_number   1
_chemical_formula_structural   CaMnGe
_chemical_formula_sum   'Ca4 Mn4 Ge4'
_cell_volume   276.81794837
_cell_formula_units_Z   4
loop_
 _symmetry_equiv_pos_site_id
 _symmetry_equiv_pos_as_xyz
  1  'x, y, z'
loop_
 _atom_site_type_symbol
 _atom_site_label
 _atom_site_symmetry_multiplicity
 _atom_site_fract_x
 _atom_site_fract_y
 _atom_site_fract_z
 _atom_site_occupancy
  Ca  Ca0  1  0.50000300  0.00000200  0.16936400  1
  Ca  Ca1  1  0.49999900  0.99999900  0.66936400  1
  Ca  Ca2  1  0.99999500  0.49999900  0.33063300  1
  Ca  Ca3  1  0.00000600  0.50000200  0.83063600  1
  Mn  Mn4  1  0.49999900  0.50000200  0.49997100  1
  Mn  Mn5  1  0.99999700  0.00000300  0.00003000  1
  Mn  Mn6  1  0.50000000  0.49999800  0.99997200  1
  Mn  Mn7  1  0.00000100  0.99999500  0.50002900  1
  Ge  Ge8  1  0.50000100  0.99999700  0.38480500  1
  Ge  Ge9  1  0.49999800  0.00000100  0.88480700  1
  Ge  Ge10  1  0.00000200  0.50000200  0.11519500  1
  Ge  Ge11  1  0.99999900  0.50000000  0.61519400  1
loop_
 _atom_site_moment_label
 _atom_site_moment_crystalaxis_x
 _atom_site_moment_crystalaxis_y
 _atom_site_moment_crystalaxis_z
  Mn4  -0.00000701  -0.00000274  -4.45500000
  Mn5  -0.00000701  -0.00000274  -4.45500000
  Mn6  0.00000701  0.00000274  4.45500000
  Mn7  0.00000701  0.00000274  4.45500000
