# generated using pymatgen
data_CrAs
_symmetry_space_group_name_H-M   'P 1'
_cell_length_a   3.82776100
_cell_length_b   5.65129300
_cell_length_c   6.62976200
_cell_angle_alpha   90.00032410
_cell_angle_beta   89.99979151
_cell_angle_gamma   89.99968862
_symmetry_Int_Tables_number   1
_chemical_formula_structural   CrAs
_chemical_formula_sum   'Cr4 As4'
_cell_volume   143.41367864
_cell_formula_units_Z   4
loop_
 _symmetry_equiv_pos_site_id
 _symmetry_equiv_pos_as_xyz
  1  'x, y, z'
loop_
 _atom_site_type_symbol
 _atom_site_label
 _atom_site_symmetry_multiplicity
 _atom_site_fract_x
 _atom_site_fract_y
 _atom_site_fract_z
 _atom_site_occupancy
  Cr  Cr0  1  0.24998600  0.00084800  0.75100200  1
  Cr  Cr1  1  0.75000700  0.99914800  0.24900600  1
  Cr  Cr2  1  0.24997800  0.50079400  0.74902700  1
  Cr  Cr3  1  0.75002200  0.49915900  0.25097000  1
  As  As4  1  0.25002200  0.74804900  0.08373300  1
  As  As5  1  0.74998300  0.25196800  0.91620200  1
  As  As6  1  0.25001100  0.24809200  0.41625700  1
  As  As7  1  0.74999100  0.75194100  0.58380400  1
loop_
 _atom_site_moment_label
 _atom_site_moment_crystalaxis_x
 _atom_site_moment_crystalaxis_y
 _atom_site_moment_crystalaxis_z
  Cr0  0.00000614  -0.00000358  -3.39300000
  Cr1  0.00000614  -0.00000358  -3.39300000
  Cr2  -0.00000615  0.00000359  3.39800000
  Cr3  -0.00000615  0.00000359  3.39900000
  As4  0.00000000  0.00000000  -0.00300000
  As5  0.00000000  0.00000000  -0.00300000
  As6  0.00000000  0.00000000  0.00300000
  As7  0.00000000  0.00000000  0.00300000
