# generated using pymatgen
data_CaMnSn
_symmetry_space_group_name_H-M   'P 1'
_cell_length_a   4.58937805
_cell_length_b   4.58897105
_cell_length_c   15.26370500
_cell_angle_alpha   90.00013000
_cell_angle_beta   89.99992998
_cell_angle_gamma   90.01700455
_symmetry_Int_Tables_number   1
_chemical_formula_structural   CaMnSn
_chemical_formula_sum   'Ca4 Mn4 Sn4'
_cell_volume   321.46159627
_cell_formula_units_Z   4
loop_
 _symmetry_equiv_pos_site_id
 _symmetry_equiv_pos_as_xyz
  1  'x, y, z'
loop_
 _atom_site_type_symbol
 _atom_site_label
 _atom_site_symmetry_multiplicity
 _atom_site_fract_x
 _atom_site_fract_y
 _atom_site_fract_z
 _atom_site_occupancy
  Ca  Ca0  1  0.00000600  0.50000000  0.33372900  1
  Ca  Ca1  1  0.00000300  0.50000700  0.83372900  1
  Ca  Ca2  1  0.49999100  0.99999800  0.16627000  1
  Ca  Ca3  1  0.49999900  0.00000400  0.66627000  1
  Mn  Mn4  1  0.50000100  0.49999700  0.49997800  1
  Mn  Mn5  1  0.00000000  0.00000300  0.00002500  1
  Mn  Mn6  1  0.50000200  0.49999200  0.99997600  1
  Mn  Mn7  1  0.00000000  0.99999500  0.50002200  1
  Sn  Sn8  1  0.50000000  0.00000200  0.38150600  1
  Sn  Sn9  1  0.50000100  0.00000100  0.88150600  1
  Sn  Sn10  1  0.99999900  0.49999900  0.11849500  1
  Sn  Sn11  1  0.99999800  0.50000100  0.61849300  1
loop_
 _atom_site_moment_label
 _atom_site_moment_crystalaxis_x
 _atom_site_moment_crystalaxis_y
 _atom_site_moment_crystalaxis_z
  Mn4  0.00000354  -0.00000531  -4.50700000
  Mn5  0.00000354  -0.00000531  -4.50700000
  Mn6  -0.00000354  0.00000531  4.50700000
  Mn7  -0.00000354  0.00000531  4.50700000
