# generated using pymatgen
data_CrSe
_symmetry_space_group_name_H-M   'P 1'
_cell_length_a   3.79842216
_cell_length_b   8.39077902
_cell_length_c   6.93212597
_cell_angle_alpha   54.43512790
_cell_angle_beta   84.22422353
_cell_angle_gamma   69.15305790
_symmetry_Int_Tables_number   1
_chemical_formula_structural   CrSe
_chemical_formula_sum   'Cr4 Se4'
_cell_volume   166.30691604
_cell_formula_units_Z   4
loop_
 _symmetry_equiv_pos_site_id
 _symmetry_equiv_pos_as_xyz
  1  'x, y, z'
loop_
 _atom_site_type_symbol
 _atom_site_label
 _atom_site_symmetry_multiplicity
 _atom_site_fract_x
 _atom_site_fract_y
 _atom_site_fract_z
 _atom_site_occupancy
  Cr  Cr0  1  0.50013400  0.99765300  0.50175300  1
  Cr  Cr1  1  0.24887700  0.50323000  0.24932100  1
  Cr  Cr2  1  0.00021600  0.99747600  0.00178200  1
  Cr  Cr3  1  0.74862800  0.50311300  0.74944200  1
  Se  Se4  1  0.39346100  0.24943400  0.03363500  1
  Se  Se5  1  0.89355400  0.24973800  0.53359100  1
  Se  Se6  1  0.60769200  0.74968800  0.96518100  1
  Se  Se7  1  0.10743900  0.74966800  0.46529500  1
loop_
 _atom_site_moment_label
 _atom_site_moment_crystalaxis_x
 _atom_site_moment_crystalaxis_y
 _atom_site_moment_crystalaxis_z
  Cr0  1.31492753  -4.94241346  2.38607680
  Cr1  1.31457782  -4.94109899  2.38544220
  Cr2  -1.31492753  4.94241346  -2.38607680
  Cr3  -1.31457782  4.94109899  -2.38544220
  Se4  0.02308117  -0.08675513  0.04188326
  Se5  -0.02308117  0.08675513  -0.04188326
  Se6  -0.02413032  0.09069854  -0.04378705
  Se7  0.02413032  -0.09069854  0.04378705
