# generated using pymatgen
data_CoSe2
_symmetry_space_group_name_H-M   'P 1'
_cell_length_a   5.90892928
_cell_length_b   5.90881828
_cell_length_c   5.90892600
_cell_angle_alpha   89.99724600
_cell_angle_beta   90.00112522
_cell_angle_gamma   90.03528581
_symmetry_Int_Tables_number   1
_chemical_formula_structural   CoSe2
_chemical_formula_sum   'Co4 Se8'
_cell_volume   206.30886729
_cell_formula_units_Z   4
loop_
 _symmetry_equiv_pos_site_id
 _symmetry_equiv_pos_as_xyz
  1  'x, y, z'
loop_
 _atom_site_type_symbol
 _atom_site_label
 _atom_site_symmetry_multiplicity
 _atom_site_fract_x
 _atom_site_fract_y
 _atom_site_fract_z
 _atom_site_occupancy
  Co  Co0  1  0.00000000  0.00000000  0.00000000  1
  Co  Co1  1  0.50000000  0.00000000  0.50000000  1
  Co  Co2  1  0.50000000  0.50000000  0.00000000  1
  Co  Co3  1  0.00000000  0.50000000  0.50000000  1
  Se  Se4  1  0.38004200  0.37996000  0.38005200  1
  Se  Se5  1  0.11995300  0.62003700  0.88004800  1
  Se  Se6  1  0.87997400  0.11995000  0.62003000  1
  Se  Se7  1  0.62001700  0.88006200  0.12003700  1
  Se  Se8  1  0.61995800  0.62004000  0.61994800  1
  Se  Se9  1  0.88004700  0.37996300  0.11995200  1
  Se  Se10  1  0.12002600  0.88005000  0.37996900  1
  Se  Se11  1  0.37998300  0.11993800  0.87996300  1
loop_
 _atom_site_moment_label
 _atom_site_moment_crystalaxis_x
 _atom_site_moment_crystalaxis_y
 _atom_site_moment_crystalaxis_z
  Co0  0.00001103  -0.00002703  1.12500000
  Co1  0.00001102  -0.00002701  1.12400000
  Co2  0.00001109  -0.00002718  1.13100000
  Co3  0.00001103  -0.00002703  1.12500000
  Se4  -0.00000049  0.00000120  -0.05000000
  Se5  -0.00000049  0.00000120  -0.05000000
  Se6  -0.00000049  0.00000120  -0.05000000
  Se7  -0.00000049  0.00000120  -0.05000000
  Se8  -0.00000049  0.00000120  -0.05000000
  Se9  -0.00000049  0.00000120  -0.05000000
  Se10  -0.00000049  0.00000120  -0.05000000
  Se11  -0.00000049  0.00000120  -0.05000000
