# generated using pymatgen
data_MgMnGe
_symmetry_space_group_name_H-M   'P 1'
_cell_length_a   4.16487900
_cell_length_b   4.16486700
_cell_length_c   6.85030200
_cell_angle_alpha   89.99924570
_cell_angle_beta   89.99880813
_cell_angle_gamma   90.00137569
_symmetry_Int_Tables_number   1
_chemical_formula_structural   MgMnGe
_chemical_formula_sum   'Mg2 Mn2 Ge2'
_cell_volume   118.82648318
_cell_formula_units_Z   2
loop_
 _symmetry_equiv_pos_site_id
 _symmetry_equiv_pos_as_xyz
  1  'x, y, z'
loop_
 _atom_site_type_symbol
 _atom_site_label
 _atom_site_symmetry_multiplicity
 _atom_site_fract_x
 _atom_site_fract_y
 _atom_site_fract_z
 _atom_site_occupancy
  Mg  Mg0  1  0.00001600  0.50002200  0.15378200  1
  Mg  Mg1  1  0.49998500  0.99997700  0.84622100  1
  Mn  Mn2  1  0.50000100  0.49999600  0.49999700  1
  Mn  Mn3  1  0.99999800  0.00000400  0.50000200  1
  Ge  Ge4  1  0.50000200  0.00000300  0.24460600  1
  Ge  Ge5  1  0.99999800  0.49999900  0.75539200  1
loop_
 _atom_site_moment_label
 _atom_site_moment_crystalaxis_x
 _atom_site_moment_crystalaxis_y
 _atom_site_moment_crystalaxis_z
  Mn2  0.00005123  0.00003458  -4.38700000
  Mn3  -0.00005123  -0.00003458  4.38700000
