# generated using pymatgen
data_CoSe2
_symmetry_space_group_name_H-M   'P 1'
_cell_length_a   3.68327400
_cell_length_b   4.87127422
_cell_length_c   5.90501127
_cell_angle_alpha   90.03453301
_cell_angle_beta   90.00128334
_cell_angle_gamma   90.00447839
_symmetry_Int_Tables_number   1
_chemical_formula_structural   CoSe2
_chemical_formula_sum   'Co2 Se4'
_cell_volume   105.94909629
_cell_formula_units_Z   2
loop_
 _symmetry_equiv_pos_site_id
 _symmetry_equiv_pos_as_xyz
  1  'x, y, z'
loop_
 _atom_site_type_symbol
 _atom_site_label
 _atom_site_symmetry_multiplicity
 _atom_site_fract_x
 _atom_site_fract_y
 _atom_site_fract_z
 _atom_site_occupancy
  Co  Co0  1  0.00000100  0.00000000  0.00000000  1
  Co  Co1  1  0.49999900  0.50000000  0.50000000  1
  Se  Se2  1  0.99994100  0.20767000  0.37432400  1
  Se  Se3  1  0.00005900  0.79233000  0.62567600  1
  Se  Se4  1  0.50001100  0.70753300  0.12573200  1
  Se  Se5  1  0.49999000  0.29246700  0.87426800  1
loop_
 _atom_site_moment_label
 _atom_site_moment_crystalaxis_x
 _atom_site_moment_crystalaxis_y
 _atom_site_moment_crystalaxis_z
  Co0  0.00001244  0.00034185  1.12900015
  Co1  0.00001239  0.00034034  1.12400015
  Se2  -0.00000053  -0.00001453  -0.04800001
  Se3  -0.00000053  -0.00001453  -0.04800001
  Se4  -0.00000054  -0.00001484  -0.04900001
  Se5  -0.00000054  -0.00001484  -0.04900001
