# generated using pymatgen
data_NaMnBi
_symmetry_space_group_name_H-M   'P 1'
_cell_length_a   4.68056900
_cell_length_b   4.68048400
_cell_length_c   7.84891600
_cell_angle_alpha   89.99972665
_cell_angle_beta   89.99984625
_cell_angle_gamma   89.99951035
_symmetry_Int_Tables_number   1
_chemical_formula_structural   NaMnBi
_chemical_formula_sum   'Na2 Mn2 Bi2'
_cell_volume   171.94877973
_cell_formula_units_Z   2
loop_
 _symmetry_equiv_pos_site_id
 _symmetry_equiv_pos_as_xyz
  1  'x, y, z'
loop_
 _atom_site_type_symbol
 _atom_site_label
 _atom_site_symmetry_multiplicity
 _atom_site_fract_x
 _atom_site_fract_y
 _atom_site_fract_z
 _atom_site_occupancy
  Na  Na0  1  0.00000000  0.50000100  0.65173500  1
  Na  Na1  1  0.50000000  0.99999900  0.34826500  1
  Mn  Mn2  1  0.99999700  0.00000800  0.00000400  1
  Mn  Mn3  1  0.50000300  0.49999200  0.99999600  1
  Bi  Bi4  1  0.00000000  0.50000300  0.23222300  1
  Bi  Bi5  1  0.50000000  0.99999700  0.76777700  1
loop_
 _atom_site_moment_label
 _atom_site_moment_crystalaxis_x
 _atom_site_moment_crystalaxis_y
 _atom_site_moment_crystalaxis_z
  Mn2  0.00000638  0.00001102  -4.55300000
  Mn3  -0.00000638  -0.00001102  4.55300000
