# generated using pymatgen
data_Mn3Ge
_symmetry_space_group_name_H-M   'P 1'
_cell_length_a   4.17324300
_cell_length_b   5.87852162
_cell_length_c   5.87859021
_cell_angle_alpha   90.00297040
_cell_angle_beta   90.00278197
_cell_angle_gamma   89.99988324
_symmetry_Int_Tables_number   1
_chemical_formula_structural   Mn3Ge
_chemical_formula_sum   'Mn6 Ge2'
_cell_volume   144.21650937
_cell_formula_units_Z   2
loop_
 _symmetry_equiv_pos_site_id
 _symmetry_equiv_pos_as_xyz
  1  'x, y, z'
loop_
 _atom_site_type_symbol
 _atom_site_label
 _atom_site_symmetry_multiplicity
 _atom_site_fract_x
 _atom_site_fract_y
 _atom_site_fract_z
 _atom_site_occupancy
  Mn  Mn0  1  0.00000000  0.00000300  0.50000200  1
  Mn  Mn1  1  0.50000200  0.25445200  0.24553900  1
  Mn  Mn2  1  0.50000000  0.74555000  0.75446400  1
  Mn  Mn3  1  0.00000000  0.49999600  0.99999600  1
  Mn  Mn4  1  0.50000100  0.24554500  0.74553500  1
  Mn  Mn5  1  0.49999800  0.75445600  0.25446600  1
  Ge  Ge6  1  0.00000000  0.99999700  0.00000100  1
  Ge  Ge7  1  0.00000000  0.50000100  0.49999700  1
loop_
 _atom_site_moment_label
 _atom_site_moment_crystalaxis_x
 _atom_site_moment_crystalaxis_y
 _atom_site_moment_crystalaxis_z
  Mn0  -0.00007288  -3.15024256  -3.15024218
  Mn1  -0.00007313  -3.16084944  -3.16084906
  Mn2  -0.00007313  -3.16084944  -3.16084906
  Mn3  0.00007288  3.15024256  3.15024218
  Mn4  0.00007314  3.16155656  3.16155619
  Mn5  0.00007314  3.16155656  3.16155619
