# generated using pymatgen
data_NaMnSb
_symmetry_space_group_name_H-M   'P 1'
_cell_length_a   4.60564100
_cell_length_b   4.60562200
_cell_length_c   7.63268700
_cell_angle_alpha   89.99941360
_cell_angle_beta   89.99972053
_cell_angle_gamma   89.99893013
_symmetry_Int_Tables_number   1
_chemical_formula_structural   NaMnSb
_chemical_formula_sum   'Na2 Mn2 Sb2'
_cell_volume   161.90334695
_cell_formula_units_Z   2
loop_
 _symmetry_equiv_pos_site_id
 _symmetry_equiv_pos_as_xyz
  1  'x, y, z'
loop_
 _atom_site_type_symbol
 _atom_site_label
 _atom_site_symmetry_multiplicity
 _atom_site_fract_x
 _atom_site_fract_y
 _atom_site_fract_z
 _atom_site_occupancy
  Na  Na0  1  0.50000000  0.00000100  0.64998700  1
  Na  Na1  1  0.00000000  0.50000000  0.35001300  1
  Mn  Mn2  1  0.99999700  0.99999500  0.99999900  1
  Mn  Mn3  1  0.50000300  0.50000400  0.00000000  1
  Sb  Sb4  1  0.50000000  0.00000100  0.22585700  1
  Sb  Sb5  1  0.00000000  0.50000000  0.77414300  1
loop_
 _atom_site_moment_label
 _atom_site_moment_crystalaxis_x
 _atom_site_moment_crystalaxis_y
 _atom_site_moment_crystalaxis_z
  Mn2  0.00001126  0.00002370  -4.52200000
  Mn3  -0.00001126  -0.00002370  4.52200000
