# generated using pymatgen
data_Fe3Ge
_symmetry_space_group_name_H-M   'P 1'
_cell_length_a   5.37039557
_cell_length_b   5.37203049
_cell_length_c   4.55132620
_cell_angle_alpha   89.96822886
_cell_angle_beta   90.00578364
_cell_angle_gamma   120.04257405
_symmetry_Int_Tables_number   1
_chemical_formula_structural   Fe3Ge
_chemical_formula_sum   'Fe6 Ge2'
_cell_volume   113.66500874
_cell_formula_units_Z   2
loop_
 _symmetry_equiv_pos_site_id
 _symmetry_equiv_pos_as_xyz
  1  'x, y, z'
loop_
 _atom_site_type_symbol
 _atom_site_label
 _atom_site_symmetry_multiplicity
 _atom_site_fract_x
 _atom_site_fract_y
 _atom_site_fract_z
 _atom_site_occupancy
  Fe  Fe0  1  0.83776700  0.16224800  0.25003200  1
  Fe  Fe1  1  0.83775900  0.67542900  0.24995300  1
  Fe  Fe2  1  0.32459700  0.16227600  0.25000500  1
  Fe  Fe3  1  0.16223800  0.83769100  0.74997000  1
  Fe  Fe4  1  0.16223700  0.32458600  0.75004100  1
  Fe  Fe5  1  0.67540600  0.83774300  0.74999900  1
  Ge  Ge6  1  0.33331200  0.66666900  0.25000000  1
  Ge  Ge7  1  0.66668300  0.33335800  0.75000100  1
loop_
 _atom_site_moment_label
 _atom_site_moment_crystalaxis_x
 _atom_site_moment_crystalaxis_y
 _atom_site_moment_crystalaxis_z
  Fe0  -0.00037112  -0.00106251  3.17400041
  Fe1  -0.00037100  -0.00106218  3.17300041
  Fe2  -0.00037089  -0.00106184  3.17200041
  Fe3  -0.00037124  -0.00106285  3.17500041
  Fe4  -0.00037089  -0.00106184  3.17200041
  Fe5  -0.00037077  -0.00106151  3.17100041
  Ge6  0.00001345  0.00003850  -0.11500002
  Ge7  0.00001345  0.00003850  -0.11500002
