# generated using pymatgen
data_CoSb
_symmetry_space_group_name_H-M   'P 1'
_cell_length_a   3.86324600
_cell_length_b   6.71814400
_cell_length_c   5.18307900
_cell_angle_alpha   89.99947031
_cell_angle_beta   90.00000000
_cell_angle_gamma   90.00000000
_symmetry_Int_Tables_number   1
_chemical_formula_structural   CoSb
_chemical_formula_sum   'Co4 Sb4'
_cell_volume   134.52081829
_cell_formula_units_Z   4
loop_
 _symmetry_equiv_pos_site_id
 _symmetry_equiv_pos_as_xyz
  1  'x, y, z'
loop_
 _atom_site_type_symbol
 _atom_site_label
 _atom_site_symmetry_multiplicity
 _atom_site_fract_x
 _atom_site_fract_y
 _atom_site_fract_z
 _atom_site_occupancy
  Co  Co0  1  0.50000000  0.50000000  0.00000000  1
  Co  Co1  1  0.00000000  0.00000000  0.50000000  1
  Co  Co2  1  0.00000000  0.00000000  0.00000000  1
  Co  Co3  1  0.50000000  0.50000000  0.50000000  1
  Sb  Sb4  1  0.00000000  0.33298300  0.24995500  1
  Sb  Sb5  1  0.50000100  0.83294900  0.24994000  1
  Sb  Sb6  1  0.49999900  0.16705100  0.75006000  1
  Sb  Sb7  1  0.00000100  0.66701700  0.75004600  1
loop_
 _atom_site_moment_label
 _atom_site_moment_crystalaxis_x
 _atom_site_moment_crystalaxis_y
 _atom_site_moment_crystalaxis_z
  Co0  0.00000000  0.00000272  -0.58700000
  Co1  0.00000000  0.00000287  -0.61900000
  Co2  0.00000000  -0.00000271  0.58500000
  Co3  0.00000000  -0.00000287  0.62000000
