# generated using pymatgen
data_SrMnGe
_symmetry_space_group_name_H-M   'P 1'
_cell_length_a   4.51637502
_cell_length_b   4.51882802
_cell_length_c   15.14976700
_cell_angle_alpha   89.99976487
_cell_angle_beta   90.00017578
_cell_angle_gamma   89.98802745
_symmetry_Int_Tables_number   1
_chemical_formula_structural   SrMnGe
_chemical_formula_sum   'Sr4 Mn4 Ge4'
_cell_volume   309.18737679
_cell_formula_units_Z   4
loop_
 _symmetry_equiv_pos_site_id
 _symmetry_equiv_pos_as_xyz
  1  'x, y, z'
loop_
 _atom_site_type_symbol
 _atom_site_label
 _atom_site_symmetry_multiplicity
 _atom_site_fract_x
 _atom_site_fract_y
 _atom_site_fract_z
 _atom_site_occupancy
  Sr  Sr0  1  0.99999900  0.50000300  0.16784700  1
  Sr  Sr1  1  0.00000000  0.49999900  0.66786200  1
  Sr  Sr2  1  0.49999900  0.00000100  0.33215300  1
  Sr  Sr3  1  0.49999900  0.99999600  0.83213900  1
  Mn  Mn4  1  0.50000000  0.50000200  0.50003800  1
  Mn  Mn5  1  0.00000300  0.00000100  0.99996300  1
  Mn  Mn6  1  0.50000000  0.49999800  0.00003900  1
  Mn  Mn7  1  0.00000200  0.00000000  0.49996200  1
  Ge  Ge8  1  0.99999800  0.50000000  0.39146400  1
  Ge  Ge9  1  0.99999900  0.49999900  0.89148000  1
  Ge  Ge10  1  0.50000000  0.00000100  0.10853800  1
  Ge  Ge11  1  0.50000100  0.00000000  0.60851900  1
loop_
 _atom_site_moment_label
 _atom_site_moment_crystalaxis_x
 _atom_site_moment_crystalaxis_y
 _atom_site_moment_crystalaxis_z
  Mn4  -0.00000683  0.00000950  -4.49700000
  Mn5  -0.00000683  0.00000950  -4.49700000
  Mn6  0.00000683  -0.00000950  4.49700000
  Mn7  0.00000683  -0.00000950  4.49700000
  Ge8  0.00000000  0.00000000  0.00100000
  Ge9  0.00000000  0.00000000  -0.00100000
  Ge10  0.00000000  0.00000000  0.00100000
  Ge11  0.00000000  0.00000000  -0.00100000
