# generated using pymatgen
data_Cr2Te3
_symmetry_space_group_name_H-M   'P 1'
_cell_length_a   6.99829802
_cell_length_b   6.99783732
_cell_length_c   12.56203504
_cell_angle_alpha   90.00785329
_cell_angle_beta   90.00056150
_cell_angle_gamma   119.99358721
_symmetry_Int_Tables_number   1
_chemical_formula_structural   Cr2Te3
_chemical_formula_sum   'Cr8 Te12'
_cell_volume   532.81318309
_cell_formula_units_Z   4
loop_
 _symmetry_equiv_pos_site_id
 _symmetry_equiv_pos_as_xyz
  1  'x, y, z'
loop_
 _atom_site_type_symbol
 _atom_site_label
 _atom_site_symmetry_multiplicity
 _atom_site_fract_x
 _atom_site_fract_y
 _atom_site_fract_z
 _atom_site_occupancy
  Cr  Cr0  1  0.33322900  0.66667000  0.24997800  1
  Cr  Cr1  1  0.66677100  0.33333000  0.75002200  1
  Cr  Cr2  1  0.00000000  0.00000000  0.00000000  1
  Cr  Cr3  1  0.00000000  0.00000000  0.50000000  1
  Cr  Cr4  1  0.33333900  0.66668900  0.99313500  1
  Cr  Cr5  1  0.33331100  0.66663300  0.50685900  1
  Cr  Cr6  1  0.66666100  0.33331000  0.00686600  1
  Cr  Cr7  1  0.66669300  0.33336900  0.49314000  1
  Te  Te8  1  0.32961200  0.99568500  0.37797000  1
  Te  Te9  1  0.00432800  0.33389900  0.37799000  1
  Te  Te10  1  0.66615600  0.67039800  0.37793900  1
  Te  Te11  1  0.00433900  0.67041300  0.12202900  1
  Te  Te12  1  0.66617400  0.99574200  0.12206000  1
  Te  Te13  1  0.32961600  0.33386200  0.12208500  1
  Te  Te14  1  0.67038700  0.00431500  0.62203000  1
  Te  Te15  1  0.99567100  0.66610200  0.62201000  1
  Te  Te16  1  0.33384400  0.32960200  0.62206100  1
  Te  Te17  1  0.99566000  0.32958700  0.87797100  1
  Te  Te18  1  0.33382600  0.00425800  0.87794100  1
  Te  Te19  1  0.67038300  0.66613800  0.87791500  1
loop_
 _atom_site_moment_label
 _atom_site_moment_crystalaxis_x
 _atom_site_moment_crystalaxis_y
 _atom_site_moment_crystalaxis_z
  Cr0  0.00019035  0.00034474  3.64500004
  Cr1  0.00019024  0.00034455  3.64300004
  Cr2  0.00018158  0.00032885  3.47700004
  Cr3  0.00018163  0.00032895  3.47800004
  Cr4  0.00018278  0.00033103  3.50000004
  Cr5  0.00018278  0.00033103  3.50000004
  Cr6  0.00018283  0.00033112  3.50100004
  Cr7  0.00018278  0.00033103  3.50000004
  Te8  -0.00001582  -0.00002866  -0.30300000
  Te9  -0.00001588  -0.00002875  -0.30400000
  Te10  -0.00001588  -0.00002875  -0.30400000
  Te11  -0.00001582  -0.00002866  -0.30300000
  Te12  -0.00001582  -0.00002866  -0.30300000
  Te13  -0.00001582  -0.00002866  -0.30300000
  Te14  -0.00001588  -0.00002875  -0.30400000
  Te15  -0.00001588  -0.00002875  -0.30400000
  Te16  -0.00001588  -0.00002875  -0.30400000
  Te17  -0.00001582  -0.00002866  -0.30300000
  Te18  -0.00001582  -0.00002866  -0.30300000
  Te19  -0.00001582  -0.00002866  -0.30300000
