# generated using pymatgen
data_CoSn2
_symmetry_space_group_name_H-M   'P 1'
_cell_length_a   5.29575662
_cell_length_b   5.29518572
_cell_length_c   9.01080866
_cell_angle_alpha   90.00023119
_cell_angle_beta   90.00043946
_cell_angle_gamma   117.70675356
_symmetry_Int_Tables_number   1
_chemical_formula_structural   CoSn2
_chemical_formula_sum   'Co4 Sn8'
_cell_volume   223.70850378
_cell_formula_units_Z   4
loop_
 _symmetry_equiv_pos_site_id
 _symmetry_equiv_pos_as_xyz
  1  'x, y, z'
loop_
 _atom_site_type_symbol
 _atom_site_label
 _atom_site_symmetry_multiplicity
 _atom_site_fract_x
 _atom_site_fract_y
 _atom_site_fract_z
 _atom_site_occupancy
  Co  Co0  1  0.25000000  0.24999900  0.50001900  1
  Co  Co1  1  0.25000100  0.24999900  0.99998400  1
  Co  Co2  1  0.74999900  0.75000000  0.00000100  1
  Co  Co3  1  0.75000000  0.75000000  0.49999500  1
  Sn  Sn4  1  0.24999900  0.74999900  0.41556500  1
  Sn  Sn5  1  0.75000700  0.25000000  0.91577000  1
  Sn  Sn6  1  0.25000000  0.75000000  0.08423000  1
  Sn  Sn7  1  0.75000100  0.25000100  0.58442300  1
  Sn  Sn8  1  0.58339500  0.41553600  0.24926600  1
  Sn  Sn9  1  0.08447500  0.91660600  0.75074100  1
  Sn  Sn10  1  0.91659800  0.08446500  0.24926400  1
  Sn  Sn11  1  0.41552500  0.58339400  0.75074100  1
loop_
 _atom_site_moment_label
 _atom_site_moment_crystalaxis_x
 _atom_site_moment_crystalaxis_y
 _atom_site_moment_crystalaxis_z
  Co0  0.32579493  0.32578458  -0.55580185
  Co1  0.27266529  0.27265664  -0.46516339
  Co2  -0.27667508  -0.27666629  0.47200403
  Co3  -0.32629615  -0.32628579  0.55665693
