# generated using pymatgen
data_Cr3Ge
_symmetry_space_group_name_H-M   'P 1'
_cell_length_a   5.09551577
_cell_length_b   5.09491647
_cell_length_c   5.08932370
_cell_angle_alpha   90.50287395
_cell_angle_beta   89.53848452
_cell_angle_gamma   89.48715656
_symmetry_Int_Tables_number   1
_chemical_formula_structural   Cr3Ge
_chemical_formula_sum   'Cr6 Ge2'
_cell_volume   132.11033696
_cell_formula_units_Z   2
loop_
 _symmetry_equiv_pos_site_id
 _symmetry_equiv_pos_as_xyz
  1  'x, y, z'
loop_
 _atom_site_type_symbol
 _atom_site_label
 _atom_site_symmetry_multiplicity
 _atom_site_fract_x
 _atom_site_fract_y
 _atom_site_fract_z
 _atom_site_occupancy
  Cr  Cr0  1  0.49171400  0.25006300  0.99160800  1
  Cr  Cr1  1  0.75008000  0.99156200  0.50851200  1
  Cr  Cr2  1  0.00858500  0.50869100  0.24999200  1
  Cr  Cr3  1  0.50830100  0.74993400  0.00840300  1
  Cr  Cr4  1  0.24992200  0.00845900  0.49147300  1
  Cr  Cr5  1  0.99139500  0.49129100  0.75001200  1
  Ge  Ge6  1  0.49999600  0.50000700  0.50000300  1
  Ge  Ge7  1  0.00000700  0.99999200  0.99999600  1
loop_
 _atom_site_moment_label
 _atom_site_moment_crystalaxis_x
 _atom_site_moment_crystalaxis_y
 _atom_site_moment_crystalaxis_z
  Cr0  0.01715734  -3.81122611  -0.01682727
  Cr1  0.01715734  -3.81122611  -0.01682727
  Cr2  0.01717985  -3.81622640  -0.01684935
  Cr3  -0.01716184  3.81222617  0.01683169
  Cr4  -0.01715734  3.81122611  0.01682727
  Cr5  -0.01717535  3.81522634  0.01684493
