# generated using pymatgen
data_Ba(CoAs)2
_symmetry_space_group_name_H-M   'P 1'
_cell_length_a   4.03296969
_cell_length_b   4.03319686
_cell_length_c   6.79993389
_cell_angle_alpha   107.31199786
_cell_angle_beta   107.30525475
_cell_angle_gamma   89.96075880
_symmetry_Int_Tables_number   1
_chemical_formula_structural   Ba(CoAs)2
_chemical_formula_sum   'Ba1 Co2 As2'
_cell_volume   100.34637939
_cell_formula_units_Z   1
loop_
 _symmetry_equiv_pos_site_id
 _symmetry_equiv_pos_as_xyz
  1  'x, y, z'
loop_
 _atom_site_type_symbol
 _atom_site_label
 _atom_site_symmetry_multiplicity
 _atom_site_fract_x
 _atom_site_fract_y
 _atom_site_fract_z
 _atom_site_occupancy
  Ba  Ba0  1  0.00000000  0.00000000  0.00000000  1
  Co  Co1  1  0.25031700  0.74968500  0.50004300  1
  Co  Co2  1  0.74968300  0.25031500  0.49995700  1
  As  As3  1  0.65678700  0.65680200  0.31331500  1
  As  As4  1  0.34321300  0.34319800  0.68668500  1
loop_
 _atom_site_moment_label
 _atom_site_moment_crystalaxis_x
 _atom_site_moment_crystalaxis_y
 _atom_site_moment_crystalaxis_z
  Ba0  0.00009590  0.00009650  0.00905639
  Co1  0.00753309  0.00758038  0.71143001
  Co2  0.00750113  0.00754822  0.70841122
  As3  -0.00012786  -0.00012866  -0.01207519
  As4  -0.00012786  -0.00012866  -0.01207519
