# generated using pymatgen
data_BaMnGe
_symmetry_space_group_name_H-M   'P 1'
_cell_length_a   4.64337200
_cell_length_b   4.64355800
_cell_length_c   7.98844000
_cell_angle_alpha   89.99962127
_cell_angle_beta   90.00003185
_cell_angle_gamma   90.00113519
_symmetry_Int_Tables_number   1
_chemical_formula_structural   BaMnGe
_chemical_formula_sum   'Ba2 Mn2 Ge2'
_cell_volume   172.24488353
_cell_formula_units_Z   2
loop_
 _symmetry_equiv_pos_site_id
 _symmetry_equiv_pos_as_xyz
  1  'x, y, z'
loop_
 _atom_site_type_symbol
 _atom_site_label
 _atom_site_symmetry_multiplicity
 _atom_site_fract_x
 _atom_site_fract_y
 _atom_site_fract_z
 _atom_site_occupancy
  Ba  Ba0  1  0.00000600  0.50000200  0.66894900  1
  Ba  Ba1  1  0.50001700  0.99999700  0.33105000  1
  Mn  Mn2  1  0.00000300  0.99999900  0.00001600  1
  Mn  Mn3  1  0.49999500  0.50000100  0.99998500  1
  Ge  Ge4  1  0.49998800  0.00000400  0.79924200  1
  Ge  Ge5  1  0.99999200  0.49999800  0.20075800  1
loop_
 _atom_site_moment_label
 _atom_site_moment_crystalaxis_x
 _atom_site_moment_crystalaxis_y
 _atom_site_moment_crystalaxis_z
  Mn2  -0.00000057  0.00001532  -4.53200000
  Mn3  0.00000057  -0.00001532  4.53200000
