# generated using pymatgen
data_Ca(MnBi)2
_symmetry_space_group_name_H-M   'P 1'
_cell_length_a   4.76785802
_cell_length_b   4.76725838
_cell_length_c   15.44426701
_cell_angle_alpha   90.00433320
_cell_angle_beta   90.00286188
_cell_angle_gamma   60.00632450
_symmetry_Int_Tables_number   1
_chemical_formula_structural   Ca(MnBi)2
_chemical_formula_sum   'Ca2 Mn4 Bi4'
_cell_volume   304.03082004
_cell_formula_units_Z   2
loop_
 _symmetry_equiv_pos_site_id
 _symmetry_equiv_pos_as_xyz
  1  'x, y, z'
loop_
 _atom_site_type_symbol
 _atom_site_label
 _atom_site_symmetry_multiplicity
 _atom_site_fract_x
 _atom_site_fract_y
 _atom_site_fract_z
 _atom_site_occupancy
  Ca  Ca0  1  0.00000000  0.99999900  0.99999900  1
  Ca  Ca1  1  0.99999900  0.00000100  0.50000000  1
  Mn  Mn2  1  0.33335800  0.33333100  0.68957400  1
  Mn  Mn3  1  0.66664300  0.66667100  0.31042900  1
  Mn  Mn4  1  0.33335200  0.33333500  0.18957100  1
  Mn  Mn5  1  0.66664900  0.66666600  0.81042500  1
  Bi  Bi6  1  0.33333700  0.33332300  0.38011000  1
  Bi  Bi7  1  0.33334100  0.33332200  0.88010400  1
  Bi  Bi8  1  0.66665800  0.66667900  0.11989600  1
  Bi  Bi9  1  0.66666400  0.66667600  0.61989000  1
loop_
 _atom_site_moment_label
 _atom_site_moment_crystalaxis_x
 _atom_site_moment_crystalaxis_y
 _atom_site_moment_crystalaxis_z
  Mn2  -0.00003581  -0.00015797  -4.59300001
  Mn3  -0.00003581  -0.00015797  -4.59300001
  Mn4  0.00003581  0.00015797  4.59300001
  Mn5  0.00003581  0.00015797  4.59300001
  Bi6  0.00000019  0.00000083  0.02400000
  Bi7  -0.00000019  -0.00000083  -0.02400000
  Bi8  -0.00000019  -0.00000083  -0.02400000
  Bi9  0.00000019  0.00000083  0.02400000
