# generated using pymatgen
data_Fe3Se4
_symmetry_space_group_name_H-M   'P 1'
_cell_length_a   3.78966867
_cell_length_b   11.44867616
_cell_length_c   7.21959273
_cell_angle_alpha   96.52188097
_cell_angle_beta   105.15993652
_cell_angle_gamma   80.48080294
_symmetry_Int_Tables_number   1
_chemical_formula_structural   Fe3Se4
_chemical_formula_sum   'Fe6 Se8'
_cell_volume   297.35547136
_cell_formula_units_Z   2
loop_
 _symmetry_equiv_pos_site_id
 _symmetry_equiv_pos_as_xyz
  1  'x, y, z'
loop_
 _atom_site_type_symbol
 _atom_site_label
 _atom_site_symmetry_multiplicity
 _atom_site_fract_x
 _atom_site_fract_y
 _atom_site_fract_z
 _atom_site_occupancy
  Fe  Fe0  1  0.00066200  0.50060500  0.50126000  1
  Fe  Fe1  1  0.74048200  0.11998800  0.60021500  1
  Fe  Fe2  1  0.25908900  0.88039500  0.39813300  1
  Fe  Fe3  1  0.00015200  0.99933600  0.99909600  1
  Fe  Fe4  1  0.73991700  0.62006200  0.10045500  1
  Fe  Fe5  1  0.25996300  0.37961600  0.90109500  1
  Se  Se6  1  0.63634000  0.85320600  0.12497500  1
  Se  Se7  1  0.63716900  0.35339800  0.62826400  1
  Se  Se8  1  0.36333400  0.64707700  0.37297800  1
  Se  Se9  1  0.36358500  0.14617800  0.87372800  1
  Se  Se10  1  0.87891500  0.39467100  0.15450800  1
  Se  Se11  1  0.87802700  0.89432200  0.65140800  1
  Se  Se12  1  0.12127000  0.10586000  0.34646200  1
  Se  Se13  1  0.12109500  0.60529200  0.84742600  1
loop_
 _atom_site_moment_label
 _atom_site_moment_crystalaxis_x
 _atom_site_moment_crystalaxis_y
 _atom_site_moment_crystalaxis_z
  Fe0  -0.01776159  -3.11048627  -2.03236682
  Fe1  -0.01945846  -3.40764959  -2.22653095
  Fe2  -0.01945341  -3.40676518  -2.22595309
  Fe3  0.01776159  3.11048627  2.03236682
  Fe4  0.01945341  3.40676518  2.22595309
  Fe5  0.01945846  3.40764959  2.22653095
  Se6  -0.00036867  -0.06456227  -0.04218447
  Se7  0.00037877  0.06633110  0.04334021
  Se8  0.00037372  0.06544668  0.04276234
  Se9  -0.00037372  -0.06544668  -0.04276234
  Se10  0.00117165  0.20518420  0.13406571
  Se11  -0.00117165  -0.20518420  -0.13406571
  Se12  -0.00117165  -0.20518420  -0.13406571
  Se13  0.00116660  0.20429978  0.13348784
