# generated using pymatgen
data_Ba(MnSn)2
_symmetry_space_group_name_H-M   'P 1'
_cell_length_a   4.86482352
_cell_length_b   4.86469826
_cell_length_c   7.02780366
_cell_angle_alpha   110.27859540
_cell_angle_beta   110.27712362
_cell_angle_gamma   90.13459990
_symmetry_Int_Tables_number   1
_chemical_formula_structural   Ba(MnSn)2
_chemical_formula_sum   'Ba1 Mn2 Sn2'
_cell_volume   144.91785922
_cell_formula_units_Z   1
loop_
 _symmetry_equiv_pos_site_id
 _symmetry_equiv_pos_as_xyz
  1  'x, y, z'
loop_
 _atom_site_type_symbol
 _atom_site_label
 _atom_site_symmetry_multiplicity
 _atom_site_fract_x
 _atom_site_fract_y
 _atom_site_fract_z
 _atom_site_occupancy
  Ba  Ba0  1  0.00000100  0.99999500  0.99999900  1
  Mn  Mn1  1  0.74959800  0.25040200  0.50000100  1
  Mn  Mn2  1  0.25040200  0.74960100  0.50000000  1
  Sn  Sn3  1  0.62018500  0.62018100  0.24239400  1
  Sn  Sn4  1  0.37981400  0.37982200  0.75760700  1
loop_
 _atom_site_moment_label
 _atom_site_moment_crystalaxis_x
 _atom_site_moment_crystalaxis_y
 _atom_site_moment_crystalaxis_z
  Mn1  -0.01265283  -0.01268654  -4.53775510
  Mn2  0.01265283  0.01268654  4.53775510
