# generated using pymatgen
data_FeSb2
_symmetry_space_group_name_H-M   'P 1'
_cell_length_a   6.23806053
_cell_length_b   7.31852623
_cell_length_c   6.42301147
_cell_angle_alpha   89.98294745
_cell_angle_beta   89.96831536
_cell_angle_gamma   90.03251468
_symmetry_Int_Tables_number   1
_chemical_formula_structural   FeSb2
_chemical_formula_sum   'Fe4 Sb8'
_cell_volume   293.23226849
_cell_formula_units_Z   4
loop_
 _symmetry_equiv_pos_site_id
 _symmetry_equiv_pos_as_xyz
  1  'x, y, z'
loop_
 _atom_site_type_symbol
 _atom_site_label
 _atom_site_symmetry_multiplicity
 _atom_site_fract_x
 _atom_site_fract_y
 _atom_site_fract_z
 _atom_site_occupancy
  Fe  Fe0  1  0.99975600  0.00005400  0.49828900  1
  Fe  Fe1  1  0.50006800  0.50004300  0.75119700  1
  Fe  Fe2  1  0.00022200  0.99996200  0.99847600  1
  Fe  Fe3  1  0.49995800  0.49998800  0.25228700  1
  Sb  Sb4  1  0.16717300  0.36280600  0.00071300  1
  Sb  Sb5  1  0.16697100  0.36237900  0.50095400  1
  Sb  Sb6  1  0.83275600  0.63740500  0.99998000  1
  Sb  Sb7  1  0.83331900  0.63742100  0.49986200  1
  Sb  Sb8  1  0.33260200  0.86293700  0.24922100  1
  Sb  Sb9  1  0.33228100  0.86262600  0.74978700  1
  Sb  Sb10  1  0.66757600  0.13728000  0.24881900  1
  Sb  Sb11  1  0.66731800  0.13709800  0.75041200  1
loop_
 _atom_site_moment_label
 _atom_site_moment_crystalaxis_x
 _atom_site_moment_crystalaxis_y
 _atom_site_moment_crystalaxis_z
  Fe0  -0.00069865  -3.31300043  0.00044740
  Fe1  -0.00069928  -3.31600043  0.00044780
  Fe2  0.00069802  3.31000043  -0.00044699
  Fe3  0.00069928  3.31600043  -0.00044780
  Sb4  -0.00000358  -0.01700000  0.00000230
  Sb5  0.00000380  0.01800000  -0.00000243
  Sb6  -0.00000380  -0.01800000  0.00000243
  Sb7  0.00000337  0.01600000  -0.00000216
  Sb8  -0.00000337  -0.01600000  0.00000216
  Sb9  0.00000358  0.01700000  -0.00000230
  Sb10  -0.00000337  -0.01600000  0.00000216
  Sb11  0.00000337  0.01600000  -0.00000216
