# generated using pymatgen
data_Sr(MnSb)2
_symmetry_space_group_name_H-M   'P 1'
_cell_length_a   4.70639500
_cell_length_b   4.70630063
_cell_length_c   7.83950900
_cell_angle_alpha   90.00022741
_cell_angle_beta   90.00011934
_cell_angle_gamma   60.00027022
_symmetry_Int_Tables_number   1
_chemical_formula_structural   Sr(MnSb)2
_chemical_formula_sum   'Sr1 Mn2 Sb2'
_cell_volume   150.37952779
_cell_formula_units_Z   1
loop_
 _symmetry_equiv_pos_site_id
 _symmetry_equiv_pos_as_xyz
  1  'x, y, z'
loop_
 _atom_site_type_symbol
 _atom_site_label
 _atom_site_symmetry_multiplicity
 _atom_site_fract_x
 _atom_site_fract_y
 _atom_site_fract_z
 _atom_site_occupancy
  Sr  Sr0  1  0.00000000  0.00000000  0.00000000  1
  Mn  Mn1  1  0.33333600  0.33333100  0.37822500  1
  Mn  Mn2  1  0.66666400  0.66666900  0.62177500  1
  Sb  Sb3  1  0.66666800  0.66666900  0.25797200  1
  Sb  Sb4  1  0.33333200  0.33333200  0.74202800  1
loop_
 _atom_site_moment_label
 _atom_site_moment_crystalaxis_x
 _atom_site_moment_crystalaxis_y
 _atom_site_moment_crystalaxis_z
  Mn1  0.00000005  -0.00000942  -4.56800000
  Mn2  -0.00000005  0.00000942  4.56800000
  Sb3  0.00000000  0.00000004  0.02000000
  Sb4  0.00000000  -0.00000004  -0.02000000
