# generated using pymatgen
data_VSb2
_symmetry_space_group_name_H-M   'P 1'
_cell_length_a   6.38415659
_cell_length_b   6.97571328
_cell_length_c   6.83910181
_cell_angle_alpha   90.12572671
_cell_angle_beta   90.07438849
_cell_angle_gamma   90.03844323
_symmetry_Int_Tables_number   1
_chemical_formula_structural   VSb2
_chemical_formula_sum   'V4 Sb8'
_cell_volume   304.57181532
_cell_formula_units_Z   4
loop_
 _symmetry_equiv_pos_site_id
 _symmetry_equiv_pos_as_xyz
  1  'x, y, z'
loop_
 _atom_site_type_symbol
 _atom_site_label
 _atom_site_symmetry_multiplicity
 _atom_site_fract_x
 _atom_site_fract_y
 _atom_site_fract_z
 _atom_site_occupancy
  V  V0  1  0.74942300  0.50166000  0.44796100  1
  V  V1  1  0.24953200  0.49893000  0.55174000  1
  V  V2  1  0.25011600  0.99855900  0.05276700  1
  V  V3  1  0.75114700  0.00161700  0.94806400  1
  Sb  Sb4  1  0.06127200  0.37263400  0.15787600  1
  Sb  Sb5  1  0.43850800  0.87243300  0.65780300  1
  Sb  Sb6  1  0.56215300  0.37307700  0.84120000  1
  Sb  Sb7  1  0.93724000  0.87317000  0.34187400  1
  Sb  Sb8  1  0.56252800  0.12759500  0.34250300  1
  Sb  Sb9  1  0.93751100  0.62737100  0.84160000  1
  Sb  Sb10  1  0.06337600  0.12658300  0.65870700  1
  Sb  Sb11  1  0.43719500  0.62637100  0.15790500  1
loop_
 _atom_site_moment_label
 _atom_site_moment_crystalaxis_x
 _atom_site_moment_crystalaxis_y
 _atom_site_moment_crystalaxis_z
  V0  -1.39334294  -1.64119272  -1.64076622
  V1  -1.39282746  -1.64058554  -1.64015920
  V2  1.39334294  1.64119272  1.64076622
  V3  1.39282746  1.64058554  1.64015920
  Sb4  0.00309288  0.00364305  0.00364210
  Sb5  -0.00309288  -0.00364305  -0.00364210
  Sb6  0.00360836  0.00425022  0.00424912
  Sb7  -0.00360836  -0.00425022  -0.00424912
  Sb8  -0.00309288  -0.00364305  -0.00364210
  Sb9  0.00309288  0.00364305  0.00364210
  Sb10  -0.00360836  -0.00425022  -0.00424912
  Sb11  0.00360836  0.00425022  0.00424912
