# generated using pymatgen
data_LiMnAs
_symmetry_space_group_name_H-M   'P 1'
_cell_length_a   4.35881401
_cell_length_b   4.35545103
_cell_length_c   12.44196010
_cell_angle_alpha   89.98698849
_cell_angle_beta   90.00204356
_cell_angle_gamma   90.00415559
_symmetry_Int_Tables_number   1
_chemical_formula_structural   LiMnAs
_chemical_formula_sum   'Li4 Mn4 As4'
_cell_volume   236.20564039
_cell_formula_units_Z   4
loop_
 _symmetry_equiv_pos_site_id
 _symmetry_equiv_pos_as_xyz
  1  'x, y, z'
loop_
 _atom_site_type_symbol
 _atom_site_label
 _atom_site_symmetry_multiplicity
 _atom_site_fract_x
 _atom_site_fract_y
 _atom_site_fract_z
 _atom_site_occupancy
  Li  Li0  1  0.49997300  0.49971800  0.25045300  1
  Li  Li1  1  0.50005700  0.49954200  0.74950200  1
  Li  Li2  1  0.99992300  0.00022100  0.24937300  1
  Li  Li3  1  0.99997200  0.00041300  0.75080100  1
  Mn  Mn4  1  0.50007100  0.50004900  0.49991100  1
  Mn  Mn5  1  0.99992200  0.00015200  0.00026100  1
  Mn  Mn6  1  0.49996000  0.50030000  0.99967100  1
  Mn  Mn7  1  0.00005100  0.99987600  0.50011000  1
  As  As8  1  0.99997600  0.50008600  0.37525200  1
  As  As9  1  0.00004800  0.49992200  0.87567800  1
  As  As10  1  0.50001100  0.00001100  0.12424400  1
  As  As11  1  0.50003700  0.99971100  0.62474400  1
loop_
 _atom_site_moment_label
 _atom_site_moment_crystalaxis_x
 _atom_site_moment_crystalaxis_y
 _atom_site_moment_crystalaxis_z
  Mn4  0.00000473  0.00056497  -4.50600009
  Mn5  0.00000473  0.00056472  -4.50400009
  Mn6  -0.00000473  -0.00056485  4.50500009
  Mn7  -0.00000473  -0.00056510  4.50700009
