# generated using pymatgen
data_Ba(FeS2)2
_symmetry_space_group_name_H-M   'P 1'
_cell_length_a   5.62951198
_cell_length_b   6.20824864
_cell_length_c   6.20972934
_cell_angle_alpha   101.86028367
_cell_angle_beta   63.04434071
_cell_angle_gamma   116.93793903
_symmetry_Int_Tables_number   1
_chemical_formula_structural   Ba(FeS2)2
_chemical_formula_sum   'Ba1 Fe2 S4'
_cell_volume   172.45855054
_cell_formula_units_Z   1
loop_
 _symmetry_equiv_pos_site_id
 _symmetry_equiv_pos_as_xyz
  1  'x, y, z'
loop_
 _atom_site_type_symbol
 _atom_site_label
 _atom_site_symmetry_multiplicity
 _atom_site_fract_x
 _atom_site_fract_y
 _atom_site_fract_z
 _atom_site_occupancy
  Ba  Ba0  1  0.00000000  0.00000000  0.00000000  1
  Fe  Fe1  1  0.75001000  0.49999500  0.49996600  1
  Fe  Fe2  1  0.24999000  0.50000500  0.50003500  1
  S  S3  1  0.80817500  0.18397000  0.56779500  1
  S  S4  1  0.37593900  0.56787200  0.81603600  1
  S  S5  1  0.62406100  0.43212800  0.18396300  1
  S  S6  1  0.19182500  0.81603000  0.43220500  1
loop_
 _atom_site_moment_label
 _atom_site_moment_crystalaxis_x
 _atom_site_moment_crystalaxis_y
 _atom_site_moment_crystalaxis_z
  Fe1  0.13011508  -0.00003983  -3.79218784
  Fe2  -0.13011508  0.00003983  3.79218784
