# generated using pymatgen
data_Fe3Ge
_symmetry_space_group_name_H-M   'P 1'
_cell_length_a   4.17859586
_cell_length_b   4.17915853
_cell_length_c   7.82426080
_cell_angle_alpha   105.55657601
_cell_angle_beta   105.54115406
_cell_angle_gamma   59.98723484
_symmetry_Int_Tables_number   1
_chemical_formula_structural   Fe3Ge
_chemical_formula_sum   'Fe6 Ge2'
_cell_volume   112.50465402
_cell_formula_units_Z   2
loop_
 _symmetry_equiv_pos_site_id
 _symmetry_equiv_pos_as_xyz
  1  'x, y, z'
loop_
 _atom_site_type_symbol
 _atom_site_label
 _atom_site_symmetry_multiplicity
 _atom_site_fract_x
 _atom_site_fract_y
 _atom_site_fract_z
 _atom_site_occupancy
  Fe  Fe0  1  0.25000100  0.24999900  0.74999900  1
  Fe  Fe1  1  0.87523200  0.87509800  0.62536900  1
  Fe  Fe2  1  0.62477100  0.62490000  0.87463500  1
  Fe  Fe3  1  0.75000000  0.75000200  0.25000300  1
  Fe  Fe4  1  0.37523500  0.37509400  0.12536700  1
  Fe  Fe5  1  0.12476200  0.12490800  0.37462900  1
  Ge  Ge6  1  0.00000200  0.99999500  0.99999600  1
  Ge  Ge7  1  0.49999700  0.50000500  0.50000100  1
loop_
 _atom_site_moment_label
 _atom_site_moment_crystalaxis_x
 _atom_site_moment_crystalaxis_y
 _atom_site_moment_crystalaxis_z
  Fe0  -1.48202685  -1.48257230  -2.61767153
  Fe1  -1.43387436  -1.43440208  -2.53262083
  Fe2  -1.43387436  -1.43440208  -2.53262083
  Fe3  1.48202685  1.48257230  2.61767153
  Fe4  1.43387436  1.43440208  2.53262083
  Fe5  1.43387436  1.43440208  2.53262083
