# generated using pymatgen
data_CoSn
_symmetry_space_group_name_H-M   'P 1'
_cell_length_a   5.35224374
_cell_length_b   8.62209000
_cell_length_c   5.34667532
_cell_angle_alpha   89.99984595
_cell_angle_beta   58.20162839
_cell_angle_gamma   89.99957543
_symmetry_Int_Tables_number   1
_chemical_formula_structural   CoSn
_chemical_formula_sum   'Co6 Sn6'
_cell_volume   209.70268650
_cell_formula_units_Z   6
loop_
 _symmetry_equiv_pos_site_id
 _symmetry_equiv_pos_as_xyz
  1  'x, y, z'
loop_
 _atom_site_type_symbol
 _atom_site_label
 _atom_site_symmetry_multiplicity
 _atom_site_fract_x
 _atom_site_fract_y
 _atom_site_fract_z
 _atom_site_occupancy
  Co  Co0  1  0.50000000  0.50000000  0.00000000  1
  Co  Co1  1  0.00000000  0.50000000  0.50000000  1
  Co  Co2  1  0.50000000  0.00000000  0.50000000  1
  Co  Co3  1  0.50000000  0.00000000  0.00000000  1
  Co  Co4  1  0.00000000  0.00000000  0.50000000  1
  Co  Co5  1  0.50000000  0.50000000  0.50000000  1
  Sn  Sn6  1  0.00000000  0.00000000  0.00000000  1
  Sn  Sn7  1  0.00000000  0.50000000  0.00000000  1
  Sn  Sn8  1  0.66429900  0.24990800  0.66394200  1
  Sn  Sn9  1  0.66429900  0.75008800  0.66394200  1
  Sn  Sn10  1  0.33570100  0.24991200  0.33605800  1
  Sn  Sn11  1  0.33570100  0.75009200  0.33605800  1
loop_
 _atom_site_moment_label
 _atom_site_moment_crystalaxis_x
 _atom_site_moment_crystalaxis_y
 _atom_site_moment_crystalaxis_z
  Co0  0.00000478  -1.13400000  -0.00000117
  Co1  0.00000473  -1.12300000  -0.00000116
  Co2  0.00000440  -1.04400000  -0.00000107
  Co3  -0.00000476  1.12800000  0.00000116
  Co4  -0.00000473  1.12200000  0.00000115
  Co5  -0.00000441  1.04700000  0.00000108
  Sn6  0.00000012  -0.02900000  -0.00000003
  Sn7  -0.00000012  0.02900000  0.00000003
