# generated using pymatgen
data_Ba(MnGe)2
_symmetry_space_group_name_H-M   'P 1'
_cell_length_a   4.62677092
_cell_length_b   4.62678083
_cell_length_c   6.56256685
_cell_angle_alpha   69.35273249
_cell_angle_beta   69.35013733
_cell_angle_gamma   90.07084105
_symmetry_Int_Tables_number   1
_chemical_formula_structural   Ba(MnGe)2
_chemical_formula_sum   'Ba1 Mn2 Ge2'
_cell_volume   121.74390025
_cell_formula_units_Z   1
loop_
 _symmetry_equiv_pos_site_id
 _symmetry_equiv_pos_as_xyz
  1  'x, y, z'
loop_
 _atom_site_type_symbol
 _atom_site_label
 _atom_site_symmetry_multiplicity
 _atom_site_fract_x
 _atom_site_fract_y
 _atom_site_fract_z
 _atom_site_occupancy
  Ba  Ba0  1  0.00000000  0.00000200  0.00000000  1
  Mn  Mn1  1  0.24967700  0.75034200  0.49999200  1
  Mn  Mn2  1  0.75032300  0.24965500  0.50000800  1
  Ge  Ge3  1  0.38280200  0.38279700  0.23657200  1
  Ge  Ge4  1  0.61719800  0.61720300  0.76342800  1
loop_
 _atom_site_moment_label
 _atom_site_moment_crystalaxis_x
 _atom_site_moment_crystalaxis_y
 _atom_site_moment_crystalaxis_z
  Mn1  3.05083467  3.05072930  -4.63760668
  Mn2  -3.05083467  -3.05072930  4.63760668
