# generated using pymatgen
data_BaVSe3
_symmetry_space_group_name_H-M   'P 1'
_cell_length_a   6.99528881
_cell_length_b   9.39243294
_cell_length_c   9.41875059
_cell_angle_alpha   84.38875017
_cell_angle_beta   111.95958274
_cell_angle_gamma   112.21577634
_symmetry_Int_Tables_number   1
_chemical_formula_structural   BaVSe3
_chemical_formula_sum   'Ba4 V4 Se12'
_cell_volume   530.64864874
_cell_formula_units_Z   4
loop_
 _symmetry_equiv_pos_site_id
 _symmetry_equiv_pos_as_xyz
  1  'x, y, z'
loop_
 _atom_site_type_symbol
 _atom_site_label
 _atom_site_symmetry_multiplicity
 _atom_site_fract_x
 _atom_site_fract_y
 _atom_site_fract_z
 _atom_site_occupancy
  Ba  Ba0  1  0.66579500  0.04216500  0.28599100  1
  Ba  Ba1  1  0.66605100  0.54244100  0.78995200  1
  Ba  Ba2  1  0.33430100  0.95604500  0.71363900  1
  Ba  Ba3  1  0.33399100  0.46039300  0.20816000  1
  V  V4  1  0.99548300  0.49450800  0.50444300  1
  V  V5  1  0.00383900  0.24821500  0.74857100  1
  V  V6  1  0.99937500  0.00325900  0.99838200  1
  V  V7  1  0.00122300  0.75264900  0.25046500  1
  Se  Se8  1  0.16838100  0.28930700  0.53877000  1
  Se  Se9  1  0.16820200  0.78793600  0.03925000  1
  Se  Se10  1  0.33579900  0.70301300  0.46525100  1
  Se  Se11  1  0.34823600  0.21300200  0.96372700  1
  Se  Se12  1  0.65975600  0.29227500  0.53629700  1
  Se  Se13  1  0.65682700  0.78936100  0.03725100  1
  Se  Se14  1  0.83200200  0.70816800  0.46322400  1
  Se  Se15  1  0.83079600  0.21704500  0.95609700  1
  Se  Se16  1  0.82402700  0.95217500  0.70087800  1
  Se  Se17  1  0.83377000  0.45260300  0.21280000  1
  Se  Se18  1  0.17341000  0.04934500  0.29530400  1
  Se  Se19  1  0.16873600  0.54609600  0.79154800  1
loop_
 _atom_site_moment_label
 _atom_site_moment_crystalaxis_x
 _atom_site_moment_crystalaxis_y
 _atom_site_moment_crystalaxis_z
  Ba0  0.00002520  0.00270856  0.00270768
  Ba2  0.00001260  0.00135428  0.00135384
  Ba3  0.00001260  0.00135428  0.00135384
  V4  -0.00818244  -0.87960474  -0.87931769
  V5  -0.00912730  -0.98117572  -0.98085553
  V6  0.01267366  1.36240549  1.36196089
  V7  0.01268625  1.36375977  1.36331473
  Se8  0.00053542  0.05755689  0.05753811
  Se9  -0.00009449  -0.01015710  -0.01015378
  Se10  0.00019527  0.02099134  0.02098449
  Se11  0.00023306  0.02505418  0.02504600
  Se12  0.00057321  0.06161973  0.06159962
  Se13  -0.00011968  -0.01286566  -0.01286146
  Se14  0.00014488  0.01557422  0.01556914
  Se15  0.00030865  0.03317986  0.03316903
  Se16  0.00022677  0.02437704  0.02436908
  Se17  0.00018897  0.02031420  0.02030757
  Se18  -0.00025196  -0.02708560  -0.02707676
  Se19  0.00060471  0.06500543  0.06498422
