# generated using pymatgen
data_MnSe2
_symmetry_space_group_name_H-M   'P 1'
_cell_length_a   6.54288000
_cell_length_b   6.54205200
_cell_length_c   6.56045300
_cell_angle_alpha   90.00037601
_cell_angle_beta   89.99878440
_cell_angle_gamma   90.00091954
_symmetry_Int_Tables_number   1
_chemical_formula_structural   MnSe2
_chemical_formula_sum   'Mn4 Se8'
_cell_volume   280.81271950
_cell_formula_units_Z   4
loop_
 _symmetry_equiv_pos_site_id
 _symmetry_equiv_pos_as_xyz
  1  'x, y, z'
loop_
 _atom_site_type_symbol
 _atom_site_label
 _atom_site_symmetry_multiplicity
 _atom_site_fract_x
 _atom_site_fract_y
 _atom_site_fract_z
 _atom_site_occupancy
  Mn  Mn0  1  0.50000000  0.00000000  0.50000000  1
  Mn  Mn1  1  0.50000000  0.50000000  0.00000000  1
  Mn  Mn2  1  0.00000000  0.00000000  0.00000000  1
  Mn  Mn3  1  0.00000000  0.50000000  0.50000000  1
  Se  Se4  1  0.39335900  0.39374100  0.39409100  1
  Se  Se5  1  0.60663000  0.89374800  0.10589800  1
  Se  Se6  1  0.10663100  0.60625300  0.89408400  1
  Se  Se7  1  0.89336300  0.10626300  0.60589700  1
  Se  Se8  1  0.60664000  0.60625900  0.60590900  1
  Se  Se9  1  0.39337000  0.10625200  0.89410200  1
  Se  Se10  1  0.89336900  0.39374700  0.10591600  1
  Se  Se11  1  0.10663700  0.89373600  0.39410400  1
loop_
 _atom_site_moment_label
 _atom_site_moment_crystalaxis_x
 _atom_site_moment_crystalaxis_y
 _atom_site_moment_crystalaxis_z
  Mn0  -0.00003638  -4.57700000  -0.00001329
  Mn1  -0.00003638  -4.57700000  -0.00001329
  Mn2  0.00003638  4.57700000  0.00001329
  Mn3  0.00003638  4.57700000  0.00001329
  Se4  -0.00000006  -0.00800000  -0.00000002
  Se5  -0.00000006  -0.00800000  -0.00000002
  Se6  0.00000006  0.00800000  0.00000002
  Se7  0.00000006  0.00800000  0.00000002
  Se8  -0.00000006  -0.00800000  -0.00000002
  Se9  -0.00000006  -0.00800000  -0.00000002
  Se10  0.00000006  0.00800000  0.00000002
  Se11  0.00000006  0.00800000  0.00000002
