# generated using pymatgen
data_RbMnAs
_symmetry_space_group_name_H-M   'P 1'
_cell_length_a   4.56045000
_cell_length_b   4.56059600
_cell_length_c   8.50833300
_cell_angle_alpha   89.99866748
_cell_angle_beta   89.99962973
_cell_angle_gamma   90.00082918
_symmetry_Int_Tables_number   1
_chemical_formula_structural   RbMnAs
_chemical_formula_sum   'Rb2 Mn2 As2'
_cell_volume   176.95945802
_cell_formula_units_Z   2
loop_
 _symmetry_equiv_pos_site_id
 _symmetry_equiv_pos_as_xyz
  1  'x, y, z'
loop_
 _atom_site_type_symbol
 _atom_site_label
 _atom_site_symmetry_multiplicity
 _atom_site_fract_x
 _atom_site_fract_y
 _atom_site_fract_z
 _atom_site_occupancy
  Rb  Rb0  1  0.00000100  0.50000100  0.65557300  1
  Rb  Rb1  1  0.49999900  0.99999700  0.34442500  1
  Mn  Mn2  1  0.00000700  0.00003300  0.99995900  1
  Mn  Mn3  1  0.49999300  0.49996800  0.00004400  1
  As  As4  1  0.99999800  0.50000200  0.17454500  1
  As  As5  1  0.50000200  0.99999800  0.82545400  1
loop_
 _atom_site_moment_label
 _atom_site_moment_crystalaxis_x
 _atom_site_moment_crystalaxis_y
 _atom_site_moment_crystalaxis_z
  Mn2  0.00001437  0.00005270  -4.52900000
  Mn3  -0.00001437  -0.00005270  4.52900000
