# generated using pymatgen
data_Cr3Se4
_symmetry_space_group_name_H-M   'P 1'
_cell_length_a   7.01236683
_cell_length_b   7.01198778
_cell_length_c   6.52623815
_cell_angle_alpha   64.03140082
_cell_angle_beta   64.03408351
_cell_angle_gamma   30.75456044
_symmetry_Int_Tables_number   1
_chemical_formula_structural   Cr3Se4
_chemical_formula_sum   'Cr3 Se4'
_cell_volume   146.19980803
_cell_formula_units_Z   1
loop_
 _symmetry_equiv_pos_site_id
 _symmetry_equiv_pos_as_xyz
  1  'x, y, z'
loop_
 _atom_site_type_symbol
 _atom_site_label
 _atom_site_symmetry_multiplicity
 _atom_site_fract_x
 _atom_site_fract_y
 _atom_site_fract_z
 _atom_site_occupancy
  Cr  Cr0  1  0.50000000  0.50000100  0.49999900  1
  Cr  Cr1  1  0.76126800  0.76132000  0.21888200  1
  Cr  Cr2  1  0.23873200  0.23868000  0.78111800  1
  Se  Se3  1  0.13435800  0.13433000  0.52203700  1
  Se  Se4  1  0.86564100  0.86567000  0.47796300  1
  Se  Se5  1  0.62315000  0.62314600  0.04787000  1
  Se  Se6  1  0.37685000  0.37685400  0.95213000  1
loop_
 _atom_site_moment_label
 _atom_site_moment_crystalaxis_x
 _atom_site_moment_crystalaxis_y
 _atom_site_moment_crystalaxis_z
  Cr0  0.00386407  0.00362595  3.64471477
  Cr1  0.00366387  0.00343810  3.45588497
  Cr2  0.00366387  0.00343810  3.45588497
  Se3  -0.00021926  -0.00020575  -0.20681358
  Se4  -0.00021926  -0.00020575  -0.20681358
  Se5  -0.00027116  -0.00025445  -0.25576946
  Se6  -0.00027116  -0.00025445  -0.25576946
