# generated using pymatgen
data_FeAs2
_symmetry_space_group_name_H-M   'P 1'
_cell_length_a   5.66787501
_cell_length_b   6.64327300
_cell_length_c   5.94951001
_cell_angle_alpha   89.99835345
_cell_angle_beta   89.99483455
_cell_angle_gamma   89.99962529
_symmetry_Int_Tables_number   1
_chemical_formula_structural   FeAs2
_chemical_formula_sum   'Fe4 As8'
_cell_volume   224.01833309
_cell_formula_units_Z   4
loop_
 _symmetry_equiv_pos_site_id
 _symmetry_equiv_pos_as_xyz
  1  'x, y, z'
loop_
 _atom_site_type_symbol
 _atom_site_label
 _atom_site_symmetry_multiplicity
 _atom_site_fract_x
 _atom_site_fract_y
 _atom_site_fract_z
 _atom_site_occupancy
  Fe  Fe0  1  0.00000600  0.00001000  0.49706000  1
  Fe  Fe1  1  0.50001300  0.50000500  0.75294900  1
  Fe  Fe2  1  0.99999700  0.00000600  0.99705700  1
  Fe  Fe3  1  0.49999600  0.49999300  0.25294100  1
  As  As4  1  0.15628600  0.37144200  0.00225500  1
  As  As5  1  0.15627000  0.37143900  0.50232500  1
  As  As6  1  0.84373200  0.62856600  0.00227900  1
  As  As7  1  0.84371300  0.62856400  0.50223100  1
  As  As8  1  0.65629000  0.12855200  0.24774800  1
  As  As9  1  0.65625800  0.12855900  0.74772300  1
  As  As10  1  0.34373500  0.87142900  0.24769700  1
  As  As11  1  0.34370400  0.87143600  0.74773800  1
loop_
 _atom_site_moment_label
 _atom_site_moment_crystalaxis_x
 _atom_site_moment_crystalaxis_y
 _atom_site_moment_crystalaxis_z
  Fe0  0.00000986  -3.27500000  0.00004733
  Fe1  0.00000986  -3.27600000  0.00004734
  Fe2  -0.00000986  3.27500000  -0.00004733
  Fe3  -0.00000986  3.27600000  -0.00004734
  As4  0.00000009  -0.02900000  0.00000042
  As5  -0.00000009  0.02900000  -0.00000042
  As6  0.00000008  -0.02700000  0.00000039
  As7  -0.00000008  0.02800000  -0.00000040
  As8  0.00000008  -0.02800000  0.00000040
  As9  -0.00000008  0.02800000  -0.00000040
  As10  0.00000008  -0.02800000  0.00000040
  As11  -0.00000008  0.02800000  -0.00000040
