# generated using pymatgen
data_CaMnSb2
_symmetry_space_group_name_H-M   'P 1'
_cell_length_a   4.40519904
_cell_length_b   4.40524104
_cell_length_c   11.25318700
_cell_angle_alpha   89.99945185
_cell_angle_beta   89.99887553
_cell_angle_gamma   89.98426233
_symmetry_Int_Tables_number   1
_chemical_formula_structural   CaMnSb2
_chemical_formula_sum   'Ca2 Mn2 Sb4'
_cell_volume   218.37892920
_cell_formula_units_Z   2
loop_
 _symmetry_equiv_pos_site_id
 _symmetry_equiv_pos_as_xyz
  1  'x, y, z'
loop_
 _atom_site_type_symbol
 _atom_site_label
 _atom_site_symmetry_multiplicity
 _atom_site_fract_x
 _atom_site_fract_y
 _atom_site_fract_z
 _atom_site_occupancy
  Ca  Ca0  1  0.25000000  0.75000300  0.22231700  1
  Ca  Ca1  1  0.74999900  0.24999900  0.77768400  1
  Mn  Mn2  1  0.75000100  0.74999900  0.49992100  1
  Mn  Mn3  1  0.25000100  0.24999900  0.50007900  1
  Sb  Sb4  1  0.24986000  0.25013000  0.00111000  1
  Sb  Sb5  1  0.75014000  0.74987000  0.99889000  1
  Sb  Sb6  1  0.25000000  0.74999900  0.66369000  1
  Sb  Sb7  1  0.75000100  0.25000100  0.33630900  1
loop_
 _atom_site_moment_label
 _atom_site_moment_crystalaxis_x
 _atom_site_moment_crystalaxis_y
 _atom_site_moment_crystalaxis_z
  Mn2  0.00004442  0.00002161  -4.50400000
  Mn3  -0.00004442  -0.00002161  4.50400000
  Sb4  0.00000008  0.00000004  -0.00800000
  Sb5  -0.00000008  -0.00000004  0.00800000
