# generated using pymatgen
data_SrMnSn
_symmetry_space_group_name_H-M   'P 1'
_cell_length_a   4.76193901
_cell_length_b   4.76129301
_cell_length_c   15.69293500
_cell_angle_alpha   90.00014521
_cell_angle_beta   90.00042468
_cell_angle_gamma   90.00892837
_symmetry_Int_Tables_number   1
_chemical_formula_structural   SrMnSn
_chemical_formula_sum   'Sr4 Mn4 Sn4'
_cell_volume   355.80570637
_cell_formula_units_Z   4
loop_
 _symmetry_equiv_pos_site_id
 _symmetry_equiv_pos_as_xyz
  1  'x, y, z'
loop_
 _atom_site_type_symbol
 _atom_site_label
 _atom_site_symmetry_multiplicity
 _atom_site_fract_x
 _atom_site_fract_y
 _atom_site_fract_z
 _atom_site_occupancy
  Sr  Sr0  1  0.99999900  0.49999800  0.16458200  1
  Sr  Sr1  1  0.99999900  0.49999900  0.66459600  1
  Sr  Sr2  1  0.49999700  0.00000200  0.33541900  1
  Sr  Sr3  1  0.49999900  0.99999700  0.83542300  1
  Mn  Mn4  1  0.50000900  0.50001100  0.50002100  1
  Mn  Mn5  1  0.00000400  0.99999300  0.99998300  1
  Mn  Mn6  1  0.50000400  0.49998200  0.99999800  1
  Mn  Mn7  1  0.99999200  0.00001500  0.49999400  1
  Sn  Sn8  1  0.00000500  0.50000800  0.38827200  1
  Sn  Sn9  1  0.99999700  0.49999900  0.88820700  1
  Sn  Sn10  1  0.50001600  0.99999100  0.11175400  1
  Sn  Sn11  1  0.49998000  0.00000500  0.61175100  1
loop_
 _atom_site_moment_label
 _atom_site_moment_crystalaxis_x
 _atom_site_moment_crystalaxis_y
 _atom_site_moment_crystalaxis_z
  Mn4  -0.00001648  -0.00000578  -4.53700000
  Mn5  -0.00001648  -0.00000578  -4.53700000
  Mn6  0.00001648  0.00000578  4.53700000
  Mn7  0.00001648  0.00000578  4.53700000
