# generated using pymatgen
data_Fe2Ge
_symmetry_space_group_name_H-M   'P 1'
_cell_length_a   4.28826937
_cell_length_b   5.80460297
_cell_length_c   4.09648162
_cell_angle_alpha   90.31373685
_cell_angle_beta   118.64093545
_cell_angle_gamma   90.54204707
_symmetry_Int_Tables_number   1
_chemical_formula_structural   Fe2Ge
_chemical_formula_sum   'Fe4 Ge2'
_cell_volume   89.48179309
_cell_formula_units_Z   2
loop_
 _symmetry_equiv_pos_site_id
 _symmetry_equiv_pos_as_xyz
  1  'x, y, z'
loop_
 _atom_site_type_symbol
 _atom_site_label
 _atom_site_symmetry_multiplicity
 _atom_site_fract_x
 _atom_site_fract_y
 _atom_site_fract_z
 _atom_site_occupancy
  Fe  Fe0  1  0.00000600  0.49998100  0.99999100  1
  Fe  Fe1  1  0.00001900  0.00004500  0.99997600  1
  Fe  Fe2  1  0.64751600  0.82037700  0.32251900  1
  Fe  Fe3  1  0.35240800  0.17961500  0.67750200  1
  Ge  Ge4  1  0.70099100  0.28157600  0.35230500  1
  Ge  Ge5  1  0.29905900  0.71840600  0.64770800  1
loop_
 _atom_site_moment_label
 _atom_site_moment_crystalaxis_x
 _atom_site_moment_crystalaxis_y
 _atom_site_moment_crystalaxis_z
  Fe0  -0.02176865  -3.13524933  -0.02360398
  Fe1  0.02187975  3.15125060  0.02372444
  Fe2  0.02105345  3.03224114  0.02282847
  Fe3  0.02104650  3.03124106  0.02282094
  Ge4  -0.00023609  -0.03400270  -0.00025599
  Ge5  -0.00023609  -0.03400270  -0.00025599
