# generated using pymatgen
data_V5Ge3
_symmetry_space_group_name_H-M   'P 1'
_cell_length_a   5.40041610
_cell_length_b   7.62374611
_cell_length_c   7.62133128
_cell_angle_alpha   60.02903619
_cell_angle_beta   89.97990446
_cell_angle_gamma   89.98242684
_symmetry_Int_Tables_number   1
_chemical_formula_structural   V5Ge3
_chemical_formula_sum   'V10 Ge6'
_cell_volume   271.82167368
_cell_formula_units_Z   2
loop_
 _symmetry_equiv_pos_site_id
 _symmetry_equiv_pos_as_xyz
  1  'x, y, z'
loop_
 _atom_site_type_symbol
 _atom_site_label
 _atom_site_symmetry_multiplicity
 _atom_site_fract_x
 _atom_site_fract_y
 _atom_site_fract_z
 _atom_site_occupancy
  V  V0  1  0.50617100  0.66659600  0.66677600  1
  V  V1  1  0.50614200  0.33340100  0.33325600  1
  V  V2  1  0.24278900  0.75147400  0.99989700  1
  V  V3  1  0.24278900  0.00011700  0.24905100  1
  V  V4  1  0.24281000  0.24906800  0.75086400  1
  V  V5  1  0.00606800  0.33327600  0.33336600  1
  V  V6  1  0.00613100  0.66672200  0.66665400  1
  V  V7  1  0.74286300  0.75098800  0.24915500  1
  V  V8  1  0.74284500  0.99996100  0.75078700  1
  V  V9  1  0.74285100  0.24838600  0.00016000  1
  Ge  Ge10  1  0.75278600  0.39278900  0.60727400  1
  Ge  Ge11  1  0.25296400  0.39303800  0.99990900  1
  Ge  Ge12  1  0.25352900  0.00002800  0.60692400  1
  Ge  Ge13  1  0.75359500  0.99997400  0.39304900  1
  Ge  Ge14  1  0.75285800  0.60700600  0.00009900  1
  Ge  Ge15  1  0.25280900  0.60717600  0.39277800  1
loop_
 _atom_site_moment_label
 _atom_site_moment_crystalaxis_x
 _atom_site_moment_crystalaxis_y
 _atom_site_moment_crystalaxis_z
  V0  -2.43500013  0.00020903  0.00031637
  V1  -2.43500013  0.00020903  0.00031637
  V2  -2.51600014  0.00021598  0.00032690
  V3  -2.51500014  0.00021589  0.00032677
  V4  -2.51400014  0.00021581  0.00032664
  V5  2.43300013  -0.00020885  -0.00031612
  V6  2.43400013  -0.00020894  -0.00031624
  V7  2.50800014  -0.00021529  -0.00032586
  V8  2.51100014  -0.00021555  -0.00032625
  V9  2.51600014  -0.00021598  -0.00032690
  Ge10  -0.08200000  0.00000704  0.00001065
  Ge11  0.07900000  -0.00000678  -0.00001026
  Ge12  0.08000000  -0.00000687  -0.00001039
  Ge13  -0.08100000  0.00000695  0.00001052
  Ge14  -0.07900000  0.00000678  0.00001026
  Ge15  0.08000000  -0.00000687  -0.00001039
