# generated using pymatgen
data_V3Ga
_symmetry_space_group_name_H-M   'P 1'
_cell_length_a   5.07829521
_cell_length_b   5.07957525
_cell_length_c   5.08072813
_cell_angle_alpha   90.02103217
_cell_angle_beta   90.01559728
_cell_angle_gamma   90.02888937
_symmetry_Int_Tables_number   1
_chemical_formula_structural   V3Ga
_chemical_formula_sum   'V6 Ga2'
_cell_volume   131.06031205
_cell_formula_units_Z   2
loop_
 _symmetry_equiv_pos_site_id
 _symmetry_equiv_pos_as_xyz
  1  'x, y, z'
loop_
 _atom_site_type_symbol
 _atom_site_label
 _atom_site_symmetry_multiplicity
 _atom_site_fract_x
 _atom_site_fract_y
 _atom_site_fract_z
 _atom_site_occupancy
  V  V0  1  0.74991100  0.00141100  0.49837300  1
  V  V1  1  0.00136100  0.49864000  0.75000000  1
  V  V2  1  0.49860500  0.75009400  0.00165100  1
  V  V3  1  0.25008600  0.99857400  0.50163600  1
  V  V4  1  0.99862800  0.50137700  0.25000200  1
  V  V5  1  0.50140600  0.24990600  0.99833800  1
  Ga  Ga6  1  0.50000300  0.49999800  0.50000200  1
  Ga  Ga7  1  0.00000000  0.00000000  0.99999900  1
loop_
 _atom_site_moment_label
 _atom_site_moment_crystalaxis_x
 _atom_site_moment_crystalaxis_y
 _atom_site_moment_crystalaxis_z
  V0  -0.00058871  -2.33600034  -0.00042823
  V1  -0.00058644  -2.32700034  -0.00042658
  V2  -0.00058946  -2.33900034  -0.00042878
  V3  0.00058871  2.33600034  0.00042823
  V4  0.00058644  2.32700034  0.00042658
  V5  0.00058946  2.33900034  0.00042878
