# generated using pymatgen
data_Co9Se8
_symmetry_space_group_name_H-M   'P 1'
_cell_length_a   7.36682527
_cell_length_b   7.36742910
_cell_length_c   7.36895327
_cell_angle_alpha   89.66783944
_cell_angle_beta   59.86597846
_cell_angle_gamma   119.48026717
_symmetry_Int_Tables_number   1
_chemical_formula_structural   Co9Se8
_chemical_formula_sum   'Co9 Se8'
_cell_volume   283.62048656
_cell_formula_units_Z   1
loop_
 _symmetry_equiv_pos_site_id
 _symmetry_equiv_pos_as_xyz
  1  'x, y, z'
loop_
 _atom_site_type_symbol
 _atom_site_label
 _atom_site_symmetry_multiplicity
 _atom_site_fract_x
 _atom_site_fract_y
 _atom_site_fract_z
 _atom_site_occupancy
  Co  Co0  1  0.75488400  0.63310300  0.12167200  1
  Co  Co1  1  0.24531400  0.12347100  0.12150000  1
  Co  Co2  1  0.24523300  0.36692300  0.87824400  1
  Co  Co3  1  0.75475500  0.87646500  0.87846100  1
  Co  Co4  1  0.99999300  0.50001000  0.49999100  1
  Co  Co5  1  0.75702800  0.87884000  0.36392000  1
  Co  Co6  1  0.75714300  0.12105500  0.12172300  1
  Co  Co7  1  0.24279000  0.87900600  0.87824600  1
  Co  Co8  1  0.24298400  0.12104900  0.63614100  1
  Se  Se9  1  0.50007100  0.74978100  0.75017200  1
  Se  Se10  1  0.49996100  0.25022200  0.24981400  1
  Se  Se11  1  0.99982200  0.26415700  0.26434700  1
  Se  Se12  1  0.99998100  0.26578200  0.73418900  1
  Se  Se13  1  0.99996800  0.73422800  0.26583500  1
  Se  Se14  1  0.52863600  0.26423800  0.73560400  1
  Se  Se15  1  0.47128300  0.73577600  0.26445300  1
  Se  Se16  1  0.00015300  0.73589300  0.73568900  1
loop_
 _atom_site_moment_label
 _atom_site_moment_crystalaxis_x
 _atom_site_moment_crystalaxis_y
 _atom_site_moment_crystalaxis_z
  Co0  -1.09993029  0.00583995  -0.00036742
  Co1  -1.09394699  0.00580819  -0.00036543
  Co2  -1.09594143  0.00581878  -0.00036609
  Co3  -1.09693864  0.00582407  -0.00036643
  Co4  0.87057040  -0.00462219  0.00029081
  Co5  1.14380784  -0.00607292  0.00038208
  Co6  1.14580227  -0.00608351  0.00038275
  Co7  1.14281062  -0.00606762  0.00038175
  Co8  1.14181341  -0.00606233  0.00038142
  Se9  -0.00997217  0.00005295  -0.00000333
  Se10  -0.00997217  0.00005295  -0.00000333
  Se11  -0.01495825  0.00007942  -0.00000500
  Se12  -0.00498608  0.00002647  -0.00000167
  Se13  -0.00498608  0.00002647  -0.00000167
  Se14  -0.01495825  0.00007942  -0.00000500
  Se15  -0.01495825  0.00007942  -0.00000500
  Se16  -0.01495825  0.00007942  -0.00000500
