# generated using pymatgen
data_VSe
_symmetry_space_group_name_H-M   'P 1'
_cell_length_a   3.90010500
_cell_length_b   6.63284400
_cell_length_c   6.27191100
_cell_angle_alpha   89.99998223
_cell_angle_beta   90.00000000
_cell_angle_gamma   90.00008726
_symmetry_Int_Tables_number   1
_chemical_formula_structural   VSe
_chemical_formula_sum   'V4 Se4'
_cell_volume   162.24673632
_cell_formula_units_Z   4
loop_
 _symmetry_equiv_pos_site_id
 _symmetry_equiv_pos_as_xyz
  1  'x, y, z'
loop_
 _atom_site_type_symbol
 _atom_site_label
 _atom_site_symmetry_multiplicity
 _atom_site_fract_x
 _atom_site_fract_y
 _atom_site_fract_z
 _atom_site_occupancy
  V  V0  1  0.49999900  0.50000100  0.99999900  1
  V  V1  1  0.00000100  0.99999800  0.50000000  1
  V  V2  1  0.00000100  0.00000000  0.00000100  1
  V  V3  1  0.50000000  0.50000100  0.49999900  1
  Se  Se4  1  0.00000000  0.33483900  0.25000000  1
  Se  Se5  1  0.50000000  0.83483900  0.25000000  1
  Se  Se6  1  0.50000000  0.16516100  0.75000000  1
  Se  Se7  1  0.99999900  0.66516100  0.75000000  1
loop_
 _atom_site_moment_label
 _atom_site_moment_crystalaxis_x
 _atom_site_moment_crystalaxis_y
 _atom_site_moment_crystalaxis_z
  V0  0.00000000  0.00000043  -2.67700000
  V1  0.00000000  0.00000043  -2.67700000
  V2  0.00000000  -0.00000043  2.67700000
  V3  0.00000000  -0.00000043  2.67700000
