# generated using pymatgen
data_RbMnSe2
_symmetry_space_group_name_H-M   'P 1'
_cell_length_a   4.09430250
_cell_length_b   4.09419910
_cell_length_c   7.90016988
_cell_angle_alpha   105.02396759
_cell_angle_beta   105.02434962
_cell_angle_gamma   90.01264420
_symmetry_Int_Tables_number   1
_chemical_formula_structural   RbMnSe2
_chemical_formula_sum   'Rb1 Mn1 Se2'
_cell_volume   123.20755828
_cell_formula_units_Z   1
loop_
 _symmetry_equiv_pos_site_id
 _symmetry_equiv_pos_as_xyz
  1  'x, y, z'
loop_
 _atom_site_type_symbol
 _atom_site_label
 _atom_site_symmetry_multiplicity
 _atom_site_fract_x
 _atom_site_fract_y
 _atom_site_fract_z
 _atom_site_occupancy
  Rb  Rb0  1  0.00007300  0.99992800  0.00000000  1
  Mn  Mn1  1  0.74997000  0.25002300  0.49999800  1
  Se  Se2  1  0.64534500  0.64538800  0.29037900  1
  Se  Se3  1  0.35461200  0.35466200  0.70962300  1
loop_
 _atom_site_moment_label
 _atom_site_moment_crystalaxis_x
 _atom_site_moment_crystalaxis_y
 _atom_site_moment_crystalaxis_z
  Mn1  -0.03141298  -0.03144234  4.48751647
  Se2  0.00182731  0.00182902  -0.26104114
  Se3  0.00182731  0.00182902  -0.26104114
