# generated using pymatgen
data_V3Se4
_symmetry_space_group_name_H-M   'P 1'
_cell_length_a   3.75949994
_cell_length_b   7.12520469
_cell_length_c   11.89836870
_cell_angle_alpha   96.85464295
_cell_angle_beta   99.09267205
_cell_angle_gamma   74.72191971
_symmetry_Int_Tables_number   1
_chemical_formula_structural   V3Se4
_chemical_formula_sum   'V6 Se8'
_cell_volume   302.58430472
_cell_formula_units_Z   2
loop_
 _symmetry_equiv_pos_site_id
 _symmetry_equiv_pos_as_xyz
  1  'x, y, z'
loop_
 _atom_site_type_symbol
 _atom_site_label
 _atom_site_symmetry_multiplicity
 _atom_site_fract_x
 _atom_site_fract_y
 _atom_site_fract_z
 _atom_site_occupancy
  V  V0  1  0.99998700  0.50002100  0.50000700  1
  V  V1  1  0.26001600  0.12076400  0.64087300  1
  V  V2  1  0.74000200  0.87922100  0.35912400  1
  V  V3  1  0.99997400  0.00000700  0.00000200  1
  V  V4  1  0.26002200  0.62076100  0.14087000  1
  V  V5  1  0.73997100  0.37923700  0.85912700  1
  Se  Se6  1  0.63796400  0.21483900  0.49063800  1
  Se  Se7  1  0.63794500  0.71484000  0.99063800  1
  Se  Se8  1  0.36202900  0.28516000  0.00936200  1
  Se  Se9  1  0.36205600  0.78516000  0.50935600  1
  Se  Se10  1  0.12183400  0.98429200  0.22767700  1
  Se  Se11  1  0.12183200  0.48430500  0.72767700  1
  Se  Se12  1  0.87818300  0.51569000  0.27232600  1
  Se  Se13  1  0.87818500  0.01570400  0.77232400  1
loop_
 _atom_site_moment_label
 _atom_site_moment_crystalaxis_x
 _atom_site_moment_crystalaxis_y
 _atom_site_moment_crystalaxis_z
  V0  -0.00005968  -1.43128905  -2.38860586
  V1  -0.00004584  -1.09927781  -1.83452910
  V2  -0.00004584  -1.09927781  -1.83452910
  V3  0.00005968  1.43128905  2.38860586
  V4  0.00004584  1.09927781  1.83452910
  V5  0.00004584  1.09927781  1.83452910
  Se6  0.00000177  0.04238441  0.07073320
  Se7  -0.00000177  -0.04238441  -0.07073320
  Se8  -0.00000177  -0.04238441  -0.07073320
  Se9  0.00000177  0.04238441  0.07073320
  Se10  0.00000027  0.00652068  0.01088203
  Se11  -0.00000027  -0.00652068  -0.01088203
  Se12  -0.00000027  -0.00652068  -0.01088203
  Se13  0.00000027  0.00652068  0.01088203
