# generated using pymatgen
data_FeGe
_symmetry_space_group_name_H-M   'P 1'
_cell_length_a   5.20687701
_cell_length_b   5.20745987
_cell_length_c   4.30966700
_cell_angle_alpha   89.99810412
_cell_angle_beta   90.00045944
_cell_angle_gamma   120.00335693
_symmetry_Int_Tables_number   1
_chemical_formula_structural   FeGe
_chemical_formula_sum   'Fe3 Ge3'
_cell_volume   101.19589719
_cell_formula_units_Z   3
loop_
 _symmetry_equiv_pos_site_id
 _symmetry_equiv_pos_as_xyz
  1  'x, y, z'
loop_
 _atom_site_type_symbol
 _atom_site_label
 _atom_site_symmetry_multiplicity
 _atom_site_fract_x
 _atom_site_fract_y
 _atom_site_fract_z
 _atom_site_occupancy
  Fe  Fe0  1  0.49999900  0.50000000  0.00000000  1
  Fe  Fe1  1  0.50000000  0.00000000  0.99999900  1
  Fe  Fe2  1  0.00000000  0.50000000  0.00000000  1
  Ge  Ge3  1  0.66671700  0.33337400  0.49999200  1
  Ge  Ge4  1  0.00000000  0.00000000  0.00000100  1
  Ge  Ge5  1  0.33328400  0.66662600  0.50000800  1
loop_
 _atom_site_moment_label
 _atom_site_moment_crystalaxis_x
 _atom_site_moment_crystalaxis_y
 _atom_site_moment_crystalaxis_z
  Fe0  -0.00001757  -0.00006073  3.06300000
  Fe1  -0.00001758  -0.00006077  3.06500000
  Fe2  -0.00001758  -0.00006075  3.06400000
  Ge3  0.00000023  0.00000079  -0.04000000
  Ge4  0.00000104  0.00000361  -0.18200000
  Ge5  0.00000023  0.00000079  -0.04000000
