# generated using pymatgen
data_LiFeAs
_symmetry_space_group_name_H-M   'P 1'
_cell_length_a   5.50597393
_cell_length_b   5.76230933
_cell_length_c   6.52953800
_cell_angle_alpha   89.99753106
_cell_angle_beta   89.99802469
_cell_angle_gamma   89.99862572
_symmetry_Int_Tables_number   1
_chemical_formula_structural   LiFeAs
_chemical_formula_sum   'Li4 Fe4 As4'
_cell_volume   207.16346766
_cell_formula_units_Z   4
loop_
 _symmetry_equiv_pos_site_id
 _symmetry_equiv_pos_as_xyz
  1  'x, y, z'
loop_
 _atom_site_type_symbol
 _atom_site_label
 _atom_site_symmetry_multiplicity
 _atom_site_fract_x
 _atom_site_fract_y
 _atom_site_fract_z
 _atom_site_occupancy
  Li  Li0  1  0.25016900  0.25010900  0.15120200  1
  Li  Li1  1  0.75015500  0.74989800  0.15119800  1
  Li  Li2  1  0.25015800  0.74988600  0.84880300  1
  Li  Li3  1  0.75014400  0.25010000  0.84880800  1
  Fe  Fe4  1  0.51798400  0.50000600  0.50001100  1
  Fe  Fe5  1  0.01799900  0.50000600  0.50002300  1
  Fe  Fe6  1  0.98192900  0.99999600  0.49999100  1
  Fe  Fe7  1  0.48192600  0.99999900  0.49999000  1
  As  As8  1  0.24990300  0.25001700  0.74816600  1
  As  As9  1  0.74989700  0.75001100  0.74816100  1
  As  As10  1  0.24987200  0.74993800  0.25182800  1
  As  As11  1  0.74986300  0.25003300  0.25181800  1
loop_
 _atom_site_moment_label
 _atom_site_moment_crystalaxis_x
 _atom_site_moment_crystalaxis_y
 _atom_site_moment_crystalaxis_z
  Fe4  0.00005603  0.00007423  -3.36000000
  Fe5  0.00005602  0.00007421  -3.35900000
  Fe6  -0.00005603  -0.00007423  3.36000000
  Fe7  -0.00005603  -0.00007423  3.36000000
