# generated using pymatgen
data_LiFeP
_symmetry_space_group_name_H-M   'P 1'
_cell_length_a   5.60587469
_cell_length_b   5.33083348
_cell_length_c   7.36141807
_cell_angle_alpha   68.77509369
_cell_angle_beta   67.62760409
_cell_angle_gamma   90.00264554
_symmetry_Int_Tables_number   1
_chemical_formula_structural   LiFeP
_chemical_formula_sum   'Li4 Fe4 P4'
_cell_volume   187.19022903
_cell_formula_units_Z   4
loop_
 _symmetry_equiv_pos_site_id
 _symmetry_equiv_pos_as_xyz
  1  'x, y, z'
loop_
 _atom_site_type_symbol
 _atom_site_label
 _atom_site_symmetry_multiplicity
 _atom_site_fract_x
 _atom_site_fract_y
 _atom_site_fract_z
 _atom_site_occupancy
  Li  Li0  1  0.42808900  0.92900600  0.64371000  1
  Li  Li1  1  0.92819300  0.42896600  0.64370800  1
  Li  Li2  1  0.07178400  0.07261800  0.35628700  1
  Li  Li3  1  0.57188200  0.57265200  0.35629000  1
  Fe  Fe4  1  0.49999800  0.49377200  0.00002300  1
  Fe  Fe5  1  0.49999400  0.99378900  0.99999700  1
  Fe  Fe6  1  0.99998300  0.99609300  0.00002100  1
  Fe  Fe7  1  0.99999100  0.49612600  0.99998500  1
  P  P8  1  0.86921700  0.87333000  0.76195000  1
  P  P9  1  0.36875100  0.37331700  0.76196300  1
  P  P10  1  0.63129500  0.13516200  0.23804100  1
  P  P11  1  0.13082400  0.63516900  0.23802400  1
loop_
 _atom_site_moment_label
 _atom_site_moment_crystalaxis_x
 _atom_site_moment_crystalaxis_y
 _atom_site_moment_crystalaxis_z
  Fe4  1.46659286  1.39479852  -3.85235018
  Fe5  1.46614546  1.39437301  -3.85117496
  Fe6  -1.46569805  -1.39394751  3.84999975
  Fe7  -1.46525065  -1.39352201  3.84882454
  P8  -0.00044740  -0.00042550  0.00117521
  P9  -0.00044740  -0.00042550  0.00117521
  P10  -0.00044740  -0.00042550  0.00117521
  P11  -0.00044740  -0.00042550  0.00117521
