# generated using pymatgen
data_Ca(CoP)2
_symmetry_space_group_name_H-M   'P 1'
_cell_length_a   3.86938714
_cell_length_b   3.86938484
_cell_length_c   5.46565015
_cell_angle_alpha   110.59650532
_cell_angle_beta   110.59655867
_cell_angle_gamma   90.03603138
_symmetry_Int_Tables_number   1
_chemical_formula_structural   Ca(CoP)2
_chemical_formula_sum   'Ca1 Co2 P2'
_cell_volume   70.97944679
_cell_formula_units_Z   1
loop_
 _symmetry_equiv_pos_site_id
 _symmetry_equiv_pos_as_xyz
  1  'x, y, z'
loop_
 _atom_site_type_symbol
 _atom_site_label
 _atom_site_symmetry_multiplicity
 _atom_site_fract_x
 _atom_site_fract_y
 _atom_site_fract_z
 _atom_site_occupancy
  Ca  Ca0  1  0.00000000  0.00000000  0.00000000  1
  Co  Co1  1  0.75044400  0.24955600  0.50000000  1
  Co  Co2  1  0.24955600  0.75044400  0.50000000  1
  P  P3  1  0.63397000  0.63397000  0.26781800  1
  P  P4  1  0.36603000  0.36603000  0.73218200  1
loop_
 _atom_site_moment_label
 _atom_site_moment_crystalaxis_x
 _atom_site_moment_crystalaxis_y
 _atom_site_moment_crystalaxis_z
  Ca0  0.00001975  0.00001975  0.00401382
  Co1  0.00357927  0.00357886  0.72750484
  Co2  0.00357433  0.00357392  0.72650138
  P3  0.00002962  0.00002962  0.00602073
  P4  0.00002962  0.00002962  0.00602073
