# generated using pymatgen
data_NaCrSe2
_symmetry_space_group_name_H-M   'P 1'
_cell_length_a   3.82097619
_cell_length_b   3.82097457
_cell_length_c   13.92068674
_cell_angle_alpha   97.87767034
_cell_angle_beta   82.12218364
_cell_angle_gamma   120.00850468
_symmetry_Int_Tables_number   1
_chemical_formula_structural   NaCrSe2
_chemical_formula_sum   'Na2 Cr2 Se4'
_cell_volume   173.77801206
_cell_formula_units_Z   2
loop_
 _symmetry_equiv_pos_site_id
 _symmetry_equiv_pos_as_xyz
  1  'x, y, z'
loop_
 _atom_site_type_symbol
 _atom_site_label
 _atom_site_symmetry_multiplicity
 _atom_site_fract_x
 _atom_site_fract_y
 _atom_site_fract_z
 _atom_site_occupancy
  Na  Na0  1  0.25000000  0.75000000  0.24999900  1
  Na  Na1  1  0.75000000  0.25000000  0.75000100  1
  Cr  Cr2  1  0.50000100  0.50000000  0.50000000  1
  Cr  Cr3  1  0.00000000  0.00000000  0.00000000  1
  Se  Se4  1  0.63309600  0.36690300  0.10085700  1
  Se  Se5  1  0.13309600  0.86690300  0.60085500  1
  Se  Se6  1  0.86690400  0.13309800  0.39914400  1
  Se  Se7  1  0.36690400  0.63309700  0.89914300  1
loop_
 _atom_site_moment_label
 _atom_site_moment_crystalaxis_x
 _atom_site_moment_crystalaxis_y
 _atom_site_moment_crystalaxis_z
  Cr2  -0.86541689  -0.86696243  -3.16587397
  Cr3  0.86541689  0.86696243  3.16587397
  Se4  -0.04113499  -0.04120845  -0.15048030
  Se5  0.04113499  0.04120845  0.15048030
  Se6  0.04113499  0.04120845  0.15048030
  Se7  -0.04113499  -0.04120845  -0.15048030
