# generated using pymatgen
data_RbMnSb
_symmetry_space_group_name_H-M   'P 1'
_cell_length_a   4.85145101
_cell_length_b   4.85101701
_cell_length_c   8.81398900
_cell_angle_alpha   90.00134930
_cell_angle_beta   89.99985108
_cell_angle_gamma   90.00885792
_symmetry_Int_Tables_number   1
_chemical_formula_structural   RbMnSb
_chemical_formula_sum   'Rb2 Mn2 Sb2'
_cell_volume   207.43256968
_cell_formula_units_Z   2
loop_
 _symmetry_equiv_pos_site_id
 _symmetry_equiv_pos_as_xyz
  1  'x, y, z'
loop_
 _atom_site_type_symbol
 _atom_site_label
 _atom_site_symmetry_multiplicity
 _atom_site_fract_x
 _atom_site_fract_y
 _atom_site_fract_z
 _atom_site_occupancy
  Rb  Rb0  1  0.49999800  0.00000200  0.65635000  1
  Rb  Rb1  1  0.99999600  0.49999900  0.34364900  1
  Mn  Mn2  1  0.00000000  0.00006000  0.00001200  1
  Mn  Mn3  1  0.50001000  0.49994300  0.99998900  1
  Sb  Sb4  1  0.49999600  0.99998900  0.18431400  1
  Sb  Sb5  1  0.99999900  0.50000700  0.81568600  1
loop_
 _atom_site_moment_label
 _atom_site_moment_crystalaxis_x
 _atom_site_moment_crystalaxis_y
 _atom_site_moment_crystalaxis_z
  Mn2  0.00000621  -0.00005388  -4.56600000
  Mn3  -0.00000621  0.00005388  4.56600000
