# generated using pymatgen
data_Li3MnP2
_symmetry_space_group_name_H-M   'P 1'
_cell_length_a   4.15365900
_cell_length_b   4.15365000
_cell_length_c   11.88717800
_cell_angle_alpha   89.99991524
_cell_angle_beta   90.00010820
_cell_angle_gamma   90.00000000
_symmetry_Int_Tables_number   1
_chemical_formula_structural   Li3MnP2
_chemical_formula_sum   'Li6 Mn2 P4'
_cell_volume   205.08764791
_cell_formula_units_Z   2
loop_
 _symmetry_equiv_pos_site_id
 _symmetry_equiv_pos_as_xyz
  1  'x, y, z'
loop_
 _atom_site_type_symbol
 _atom_site_label
 _atom_site_symmetry_multiplicity
 _atom_site_fract_x
 _atom_site_fract_y
 _atom_site_fract_z
 _atom_site_occupancy
  Li  Li0  1  0.49999800  0.49999900  0.75337000  1
  Li  Li1  1  0.00000200  0.00000200  0.50000000  1
  Li  Li2  1  0.00000100  0.00000000  0.74663100  1
  Li  Li3  1  0.00000200  0.00000200  0.25337000  1
  Li  Li4  1  0.49999800  0.49999800  0.00000000  1
  Li  Li5  1  0.50000000  0.50000000  0.24662900  1
  Mn  Mn6  1  0.99999500  0.99999900  0.00000100  1
  Mn  Mn7  1  0.50000200  0.50000000  0.49999900  1
  P  P8  1  0.99999900  0.50000000  0.12114400  1
  P  P9  1  0.00000500  0.49999800  0.62114500  1
  P  P10  1  0.49999600  0.00000200  0.87885500  1
  P  P11  1  0.50000200  0.00000100  0.37885600  1
loop_
 _atom_site_moment_label
 _atom_site_moment_crystalaxis_x
 _atom_site_moment_crystalaxis_y
 _atom_site_moment_crystalaxis_z
  Li0  0.00000000  0.00000000  0.00100000
  Li1  0.00000000  0.00000000  -0.00400000
  Li2  0.00000000  0.00000000  0.00100000
  Li3  0.00000000  0.00000000  0.00100000
  Li4  0.00000000  0.00000000  -0.00400000
  Li5  0.00000000  0.00000000  0.00100000
  Mn6  0.00000407  -0.00000333  4.39500000
  Mn7  0.00000407  -0.00000333  4.39500000
  P8  -0.00000016  0.00000013  -0.17600000
  P9  -0.00000016  0.00000013  -0.17600000
  P10  -0.00000016  0.00000013  -0.17600000
  P11  -0.00000016  0.00000013  -0.17600000
