# generated using pymatgen
data_Sr(NiGe)2
_symmetry_space_group_name_H-M   'P 1'
_cell_length_a   4.29778378
_cell_length_b   4.28431286
_cell_length_c   10.05121212
_cell_angle_alpha   89.99853450
_cell_angle_beta   89.99318051
_cell_angle_gamma   89.89782964
_symmetry_Int_Tables_number   1
_chemical_formula_structural   Sr(NiGe)2
_chemical_formula_sum   'Sr2 Ni4 Ge4'
_cell_volume   185.07317910
_cell_formula_units_Z   2
loop_
 _symmetry_equiv_pos_site_id
 _symmetry_equiv_pos_as_xyz
  1  'x, y, z'
loop_
 _atom_site_type_symbol
 _atom_site_label
 _atom_site_symmetry_multiplicity
 _atom_site_fract_x
 _atom_site_fract_y
 _atom_site_fract_z
 _atom_site_occupancy
  Sr  Sr0  1  0.99998400  0.00000800  0.00005800  1
  Sr  Sr1  1  0.49999200  0.50001000  0.49992600  1
  Ni  Ni2  1  0.00019500  0.50003300  0.74966600  1
  Ni  Ni3  1  0.49989200  0.99998200  0.75015100  1
  Ni  Ni4  1  0.50006400  0.99993700  0.24985400  1
  Ni  Ni5  1  0.99990500  0.50003900  0.25031300  1
  Ge  Ge6  1  0.49994300  0.49996300  0.12892500  1
  Ge  Ge7  1  0.99995800  0.00003400  0.62863700  1
  Ge  Ge8  1  0.99999800  0.00003300  0.37115600  1
  Ge  Ge9  1  0.50007000  0.49996000  0.87131400  1
loop_
 _atom_site_moment_label
 _atom_site_moment_crystalaxis_x
 _atom_site_moment_crystalaxis_y
 _atom_site_moment_crystalaxis_z
  Ni2  0.31377322  0.31374748  -0.77131561
  Ni3  0.31377322  0.31374748  -0.77131561
  Ni4  -0.31271555  -0.31268991  0.76871567
  Ni5  -0.31271555  -0.31268991  0.76871567
  Ge6  0.00775619  0.00775556  -0.01906623
  Ge7  -0.00775619  -0.00775556  0.01906623
  Ge8  0.00775619  0.00775556  -0.01906623
  Ge9  -0.00775619  -0.00775556  0.01906623
