# generated using pymatgen
data_K(FeAs)2
_symmetry_space_group_name_H-M   'P 1'
_cell_length_a   5.83495157
_cell_length_b   5.87280775
_cell_length_c   7.60157177
_cell_angle_alpha   90.60304296
_cell_angle_beta   67.36215881
_cell_angle_gamma   89.94936256
_symmetry_Int_Tables_number   1
_chemical_formula_structural   K(FeAs)2
_chemical_formula_sum   'K2 Fe4 As4'
_cell_volume   240.40155393
_cell_formula_units_Z   2
loop_
 _symmetry_equiv_pos_site_id
 _symmetry_equiv_pos_as_xyz
  1  'x, y, z'
loop_
 _atom_site_type_symbol
 _atom_site_label
 _atom_site_symmetry_multiplicity
 _atom_site_fract_x
 _atom_site_fract_y
 _atom_site_fract_z
 _atom_site_occupancy
  K  K0  1  0.50002900  0.49997700  0.99999700  1
  K  K1  1  0.00007800  0.99997700  0.99997700  1
  Fe  Fe2  1  0.52034400  0.25003800  0.49986300  1
  Fe  Fe3  1  0.97971300  0.24996000  0.50013000  1
  Fe  Fe4  1  0.02032000  0.75004600  0.49979900  1
  Fe  Fe5  1  0.47946100  0.75000300  0.50024300  1
  As  As6  1  0.35378700  0.00952000  0.29378900  1
  As  As7  1  0.85351700  0.50951300  0.29381800  1
  As  As8  1  0.14648900  0.49044800  0.70620000  1
  As  As9  1  0.64626300  0.99051900  0.70618500  1
loop_
 _atom_site_moment_label
 _atom_site_moment_crystalaxis_x
 _atom_site_moment_crystalaxis_y
 _atom_site_moment_crystalaxis_z
  Fe2  1.36744805  -1.25477689  -3.55612502
  Fe3  1.36744805  -1.25477689  -3.55612502
  Fe4  -1.36744805  1.25477689  3.55612502
  Fe5  -1.36744805  1.25477689  3.55612502
  As6  -0.00586049  0.00537762  0.01524054
  As7  0.00586049  -0.00537762  -0.01524054
  As8  -0.00586049  0.00537762  0.01524054
  As9  0.00586049  -0.00537762  -0.01524054
