# generated using pymatgen
data_V5Sb4
_symmetry_space_group_name_H-M   'P 1'
_cell_length_a   3.56176743
_cell_length_b   7.76658690
_cell_length_c   15.02222350
_cell_angle_alpha   87.88142755
_cell_angle_beta   90.01289786
_cell_angle_gamma   103.28127054
_symmetry_Int_Tables_number   1
_chemical_formula_structural   V5Sb4
_chemical_formula_sum   'V10 Sb8'
_cell_volume   404.15089094
_cell_formula_units_Z   2
loop_
 _symmetry_equiv_pos_site_id
 _symmetry_equiv_pos_as_xyz
  1  'x, y, z'
loop_
 _atom_site_type_symbol
 _atom_site_label
 _atom_site_symmetry_multiplicity
 _atom_site_fract_x
 _atom_site_fract_y
 _atom_site_fract_z
 _atom_site_occupancy
  V  V0  1  0.50003600  0.00002900  0.50005500  1
  V  V1  1  0.34610400  0.69169700  0.03854800  1
  V  V2  1  0.46686000  0.93467100  0.84823200  1
  V  V3  1  0.53313700  0.06530200  0.15172900  1
  V  V4  1  0.65386600  0.30825400  0.96142000  1
  V  V5  1  0.99997800  0.99997600  0.99994200  1
  V  V6  1  0.84612000  0.69171100  0.53856300  1
  V  V7  1  0.96686600  0.93469800  0.34829700  1
  V  V8  1  0.03306500  0.06522200  0.65174900  1
  V  V9  1  0.15395600  0.30840400  0.46146200  1
  Sb  Sb10  1  0.16920900  0.33828600  0.10829600  1
  Sb  Sb11  1  0.66924300  0.33837500  0.60830200  1
  Sb  Sb12  1  0.88780300  0.77482500  0.17607800  1
  Sb  Sb13  1  0.38782000  0.77485000  0.67608000  1
  Sb  Sb14  1  0.61219900  0.22516300  0.32393100  1
  Sb  Sb15  1  0.11219200  0.22517600  0.82391100  1
  Sb  Sb16  1  0.33079400  0.66172000  0.39171400  1
  Sb  Sb17  1  0.83075600  0.66164000  0.89169000  1
loop_
 _atom_site_moment_label
 _atom_site_moment_crystalaxis_x
 _atom_site_moment_crystalaxis_y
 _atom_site_moment_crystalaxis_z
  V0  0.61579392  0.04827298  -2.45889832
  V1  0.56786369  0.04451566  -2.26751034
  V2  0.61895682  0.04852092  -2.47152798
  V3  0.61895682  0.04852092  -2.47152798
  V4  0.56786369  0.04451566  -2.26751034
  V5  -0.61579392  -0.04827298  2.45889832
  V6  -0.56786369  -0.04451566  2.26751034
  V7  -0.61895682  -0.04852092  2.47152798
  V8  -0.61895682  -0.04852092  2.47152798
  V9  -0.56786369  -0.04451566  2.26751034
  Sb10  -0.03673840  -0.00287998  0.14669840
  Sb11  0.03673840  0.00287998  -0.14669840
  Sb12  -0.02116716  -0.00165932  0.08452159
  Sb13  0.02116716  0.00165932  -0.08452159
  Sb14  0.02116716  0.00165932  -0.08452159
  Sb15  -0.02116716  -0.00165932  0.08452159
  Sb16  0.03673840  0.00287998  -0.14669840
  Sb17  -0.03673840  -0.00287998  0.14669840
