# generated using pymatgen
data_NaVSe2
_symmetry_space_group_name_H-M   'P 1'
_cell_length_a   3.85121961
_cell_length_b   7.31751804
_cell_length_c   6.59917709
_cell_angle_alpha   72.12247309
_cell_angle_beta   90.00395889
_cell_angle_gamma   89.99340958
_symmetry_Int_Tables_number   1
_chemical_formula_structural   NaVSe2
_chemical_formula_sum   'Na2 V2 Se4'
_cell_volume   176.99407349
_cell_formula_units_Z   2
loop_
 _symmetry_equiv_pos_site_id
 _symmetry_equiv_pos_as_xyz
  1  'x, y, z'
loop_
 _atom_site_type_symbol
 _atom_site_label
 _atom_site_symmetry_multiplicity
 _atom_site_fract_x
 _atom_site_fract_y
 _atom_site_fract_z
 _atom_site_occupancy
  Na  Na0  1  0.00000200  0.50000100  0.50000400  1
  Na  Na1  1  0.50000800  0.50000200  0.99999400  1
  V  V2  1  0.50001000  0.99999900  0.50001000  1
  V  V3  1  0.00000100  0.00000700  0.99998700  1
  Se  Se4  1  0.50004800  0.20911300  0.76422800  1
  Se  Se5  1  0.00001200  0.20913600  0.26422700  1
  Se  Se6  1  0.49996200  0.79086700  0.23578700  1
  Se  Se7  1  0.99995500  0.79087600  0.73576400  1
loop_
 _atom_site_moment_label
 _atom_site_moment_crystalaxis_x
 _atom_site_moment_crystalaxis_y
 _atom_site_moment_crystalaxis_z
  Na0  -0.00078691  -0.00300558  0.00136751
  Na1  0.00078691  0.00300558  -0.00136751
  V2  -0.52801721  -2.01674279  0.91759636
  V3  0.52801721  2.01674279  -0.91759636
  Se4  -0.00550838  -0.02103905  0.00957254
  Se5  0.00550838  0.02103905  -0.00957254
  Se6  -0.00550838  -0.02103905  0.00957254
  Se7  0.00550838  0.02103905  -0.00957254
