# generated using pymatgen
data_BaVS3
_symmetry_space_group_name_H-M   'P 1'
_cell_length_a   5.81381310
_cell_length_b   6.92907081
_cell_length_c   11.63240766
_cell_angle_alpha   89.99997422
_cell_angle_beta   90.00005688
_cell_angle_gamma   90.02082607
_symmetry_Int_Tables_number   1
_chemical_formula_structural   BaVS3
_chemical_formula_sum   'Ba4 V4 S12'
_cell_volume   468.60363205
_cell_formula_units_Z   4
loop_
 _symmetry_equiv_pos_site_id
 _symmetry_equiv_pos_as_xyz
  1  'x, y, z'
loop_
 _atom_site_type_symbol
 _atom_site_label
 _atom_site_symmetry_multiplicity
 _atom_site_fract_x
 _atom_site_fract_y
 _atom_site_fract_z
 _atom_site_occupancy
  Ba  Ba0  1  0.74870600  0.50000100  0.83718700  1
  Ba  Ba1  1  0.74870400  0.00000000  0.33717900  1
  Ba  Ba2  1  0.24870800  0.50000200  0.16281400  1
  Ba  Ba3  1  0.24870700  0.00000000  0.66282200  1
  V  V4  1  0.47953600  0.00000500  0.02293100  1
  V  V5  1  0.97953500  0.00000500  0.97706700  1
  V  V6  1  0.47954900  0.50000600  0.52293200  1
  V  V7  1  0.97954900  0.50000600  0.47706800  1
  S  S8  1  0.24209900  0.49998100  0.67177200  1
  S  S9  1  0.24212300  0.99997300  0.17178500  1
  S  S10  1  0.74210200  0.49998200  0.32822700  1
  S  S11  1  0.74212800  0.99997300  0.82821400  1
  S  S12  1  0.76033100  0.75959000  0.07982400  1
  S  S13  1  0.76033200  0.25959200  0.57981700  1
  S  S14  1  0.26040200  0.24042900  0.92016700  1
  S  S15  1  0.26041400  0.74042400  0.42017000  1
  S  S16  1  0.76040100  0.24043000  0.07983300  1
  S  S17  1  0.76041000  0.74042400  0.57983000  1
  S  S18  1  0.26033200  0.75958800  0.92017700  1
  S  S19  1  0.26033200  0.25959100  0.42018300  1
loop_
 _atom_site_moment_label
 _atom_site_moment_crystalaxis_x
 _atom_site_moment_crystalaxis_y
 _atom_site_moment_crystalaxis_z
  Ba0  0.00000009  0.00050568  0.00086272
  Ba1  -0.00000009  -0.00050568  -0.00086272
  Ba2  0.00000009  0.00050568  0.00086272
  Ba3  -0.00000009  -0.00050568  -0.00086272
  V4  -0.00011605  -0.63462877  -1.08271453
  V5  -0.00011605  -0.63462877  -1.08271453
  V6  0.00011605  0.63462877  1.08271453
  V7  0.00011605  0.63462877  1.08271453
  S8  -0.00000897  -0.04905099  -0.08368391
  S9  0.00000897  0.04905099  0.08368391
  S10  -0.00000897  -0.04905099  -0.08368391
  S11  0.00000897  0.04905099  0.08368391
  S12  0.00000518  0.02831810  0.04831236
  S13  -0.00000518  -0.02831810  -0.04831236
  S14  0.00000518  0.02831810  0.04831236
  S15  -0.00000518  -0.02831810  -0.04831236
  S16  0.00000518  0.02831810  0.04831236
  S17  -0.00000518  -0.02831810  -0.04831236
  S18  0.00000518  0.02831810  0.04831236
  S19  -0.00000518  -0.02831810  -0.04831236
