# generated using pymatgen
data_Ni3Te2
_symmetry_space_group_name_H-M   'P 1'
_cell_length_a   4.05910082
_cell_length_b   6.31047835
_cell_length_c   7.84146884
_cell_angle_alpha   89.88011783
_cell_angle_beta   89.05519444
_cell_angle_gamma   89.86762682
_symmetry_Int_Tables_number   1
_chemical_formula_structural   Ni3Te2
_chemical_formula_sum   'Ni6 Te4'
_cell_volume   200.82992003
_cell_formula_units_Z   2
loop_
 _symmetry_equiv_pos_site_id
 _symmetry_equiv_pos_as_xyz
  1  'x, y, z'
loop_
 _atom_site_type_symbol
 _atom_site_label
 _atom_site_symmetry_multiplicity
 _atom_site_fract_x
 _atom_site_fract_y
 _atom_site_fract_z
 _atom_site_occupancy
  Ni  Ni0  1  0.74945700  0.00890200  0.62332100  1
  Ni  Ni1  1  0.25201800  0.00497500  0.87597900  1
  Ni  Ni2  1  0.74957900  0.99502100  0.12357500  1
  Ni  Ni3  1  0.24948200  0.71470600  0.63329900  1
  Ni  Ni4  1  0.74999200  0.28600200  0.36654500  1
  Ni  Ni5  1  0.25007300  0.99142800  0.37817300  1
  Te  Te6  1  0.24762900  0.27552500  0.12534600  1
  Te  Te7  1  0.75224000  0.72306500  0.87446800  1
  Te  Te8  1  0.25125800  0.29110700  0.62247600  1
  Te  Te9  1  0.74827100  0.70926800  0.37681800  1
loop_
 _atom_site_moment_label
 _atom_site_moment_crystalaxis_x
 _atom_site_moment_crystalaxis_y
 _atom_site_moment_crystalaxis_z
  Ni0  0.00823277  -0.01365000  -0.98397834
  Ni1  0.00876824  -0.01453780  -1.04797693
  Ni2  0.00861764  -0.01428811  -1.02997732
  Ni3  -0.00808217  0.01340030  0.96597873
  Ni4  -0.00799014  0.01324771  0.95497897
  Ni5  -0.00766384  0.01270670  0.91597983
  Te6  0.00057730  -0.00095716  -0.06899848
  Te7  0.00051873  -0.00086006  -0.06199864
  Te8  0.00009203  -0.00015259  -0.01099976
  Te9  0.00006693  -0.00011098  -0.00799982
