# generated using pymatgen
data_Ba3CrS5
_symmetry_space_group_name_H-M   'P 1'
_cell_length_a   6.21416000
_cell_length_b   9.31151102
_cell_length_c   9.31150355
_cell_angle_alpha   59.99984877
_cell_angle_beta   89.99999230
_cell_angle_gamma   90.00001385
_symmetry_Int_Tables_number   1
_chemical_formula_structural   Ba3CrS5
_chemical_formula_sum   'Ba6 Cr2 S10'
_cell_volume   466.60820972
_cell_formula_units_Z   2
loop_
 _symmetry_equiv_pos_site_id
 _symmetry_equiv_pos_as_xyz
  1  'x, y, z'
loop_
 _atom_site_type_symbol
 _atom_site_label
 _atom_site_symmetry_multiplicity
 _atom_site_fract_x
 _atom_site_fract_y
 _atom_site_fract_z
 _atom_site_occupancy
  Ba  Ba0  1  0.16951500  0.62039300  0.37960700  1
  Ba  Ba1  1  0.66964900  0.00000000  0.37963900  1
  Ba  Ba2  1  0.66964900  0.62036100  0.00000000  1
  Ba  Ba3  1  0.16951600  0.37960700  0.00000000  1
  Ba  Ba4  1  0.16951600  0.00000000  0.62039300  1
  Ba  Ba5  1  0.66964900  0.37963800  0.62036200  1
  Cr  Cr6  1  0.40539900  0.99999900  0.00000000  1
  Cr  Cr7  1  0.90550100  0.00000000  0.00000000  1
  S  S8  1  0.41942000  0.66666700  0.66666700  1
  S  S9  1  0.91941500  0.33333300  0.33333300  1
  S  S10  1  0.41942000  0.33333300  0.33333300  1
  S  S11  1  0.91941400  0.66666700  0.66666700  1
  S  S12  1  0.15471300  0.78987100  0.99999900  1
  S  S13  1  0.65593500  0.78986900  0.21013100  1
  S  S14  1  0.65593400  0.99999900  0.78987100  1
  S  S15  1  0.15471200  0.00000200  0.21012900  1
  S  S16  1  0.15471100  0.21013300  0.78986800  1
  S  S17  1  0.65593400  0.21012900  0.00000100  1
loop_
 _atom_site_moment_label
 _atom_site_moment_crystalaxis_x
 _atom_site_moment_crystalaxis_y
 _atom_site_moment_crystalaxis_z
  Ba0  0.00000000  0.00100000  -0.00100000
  Ba3  0.00000000  0.00100000  -0.00100000
  Ba4  0.00000000  0.00100000  -0.00100000
  Cr6  0.00000166  3.08400752  -3.08400658
  Cr7  -0.00000163  -3.03200739  3.03200647
  S8  -0.00000001  -0.02000005  0.02000004
  S9  -0.00000002  -0.03600009  0.03600008
  S10  -0.00000001  -0.02000005  0.02000004
  S11  -0.00000002  -0.03600009  0.03600008
  S12  0.00000000  0.00400001  -0.00400001
  S13  0.00000000  0.00300001  -0.00300001
  S14  0.00000000  0.00300001  -0.00300001
  S15  0.00000000  0.00400001  -0.00400001
  S16  0.00000000  0.00400001  -0.00400001
  S17  0.00000000  0.00300001  -0.00300001
