# generated using pymatgen
data_Sr(FeP)2
_symmetry_space_group_name_H-M   'P 1'
_cell_length_a   5.74939623
_cell_length_b   7.04224483
_cell_length_c   5.39220013
_cell_angle_alpha   90.00060787
_cell_angle_beta   90.00014782
_cell_angle_gamma   65.90568822
_symmetry_Int_Tables_number   1
_chemical_formula_structural   Sr(FeP)2
_chemical_formula_sum   'Sr2 Fe4 P4'
_cell_volume   199.30148649
_cell_formula_units_Z   2
loop_
 _symmetry_equiv_pos_site_id
 _symmetry_equiv_pos_as_xyz
  1  'x, y, z'
loop_
 _atom_site_type_symbol
 _atom_site_label
 _atom_site_symmetry_multiplicity
 _atom_site_fract_x
 _atom_site_fract_y
 _atom_site_fract_z
 _atom_site_occupancy
  Sr  Sr0  1  0.50000000  0.00000000  0.50010800  1
  Sr  Sr1  1  0.00000000  0.00000000  0.00016400  1
  Fe  Fe2  1  0.00000000  0.50000100  0.24890900  1
  Fe  Fe3  1  0.00000100  0.49999900  0.74890900  1
  Fe  Fe4  1  0.50000100  0.49999800  0.75070700  1
  Fe  Fe5  1  0.50000000  0.50000200  0.25071400  1
  P  P6  1  0.36306800  0.27387300  0.00013300  1
  P  P7  1  0.86309700  0.27387500  0.50012000  1
  P  P8  1  0.13690100  0.72612500  0.50011400  1
  P  P9  1  0.63693200  0.72612700  0.00012300  1
loop_
 _atom_site_moment_label
 _atom_site_moment_crystalaxis_x
 _atom_site_moment_crystalaxis_y
 _atom_site_moment_crystalaxis_z
  Fe2  1.34772543  -3.30144781  -1.43036580
  Fe3  1.34772543  -3.30144781  -1.43036580
  Fe4  -1.34772543  3.30144781  1.43036580
  Fe5  -1.34772543  3.30144781  1.43036580
