# generated using pymatgen
data_Ba(FeP)2
_symmetry_space_group_name_H-M   'P 1'
_cell_length_a   5.82898635
_cell_length_b   5.66812754
_cell_length_c   7.12797784
_cell_angle_alpha   90.01382164
_cell_angle_beta   65.86050259
_cell_angle_gamma   90.03897728
_symmetry_Int_Tables_number   1
_chemical_formula_structural   Ba(FeP)2
_chemical_formula_sum   'Ba2 Fe4 P4'
_cell_volume   214.91005712
_cell_formula_units_Z   2
loop_
 _symmetry_equiv_pos_site_id
 _symmetry_equiv_pos_as_xyz
  1  'x, y, z'
loop_
 _atom_site_type_symbol
 _atom_site_label
 _atom_site_symmetry_multiplicity
 _atom_site_fract_x
 _atom_site_fract_y
 _atom_site_fract_z
 _atom_site_occupancy
  Ba  Ba0  1  0.49992500  0.50013400  0.00011700  1
  Ba  Ba1  1  0.00007000  0.99999200  0.99988600  1
  Fe  Fe2  1  0.49994300  0.23414200  0.49999100  1
  Fe  Fe3  1  0.50005300  0.73421400  0.49997800  1
  Fe  Fe4  1  0.99995300  0.76562500  0.50002100  1
  Fe  Fe5  1  0.00005800  0.26569800  0.50000800  1
  P  P6  1  0.35667300  0.00006400  0.28665700  1
  P  P7  1  0.85667100  0.50003500  0.28664600  1
  P  P8  1  0.14335600  0.50003200  0.71334400  1
  P  P9  1  0.64329800  0.00006400  0.71335400  1
loop_
 _atom_site_moment_label
 _atom_site_moment_crystalaxis_x
 _atom_site_moment_crystalaxis_y
 _atom_site_moment_crystalaxis_z
  Fe2  1.37996663  -1.35146154  -3.37573734
  Fe3  1.37996663  -1.35146154  -3.37573734
  Fe4  -1.37996663  1.35146154  3.37573734
  Fe5  -1.37996663  1.35146154  3.37573734
