# generated using pymatgen
data_Sr(MnAs)2
_symmetry_space_group_name_H-M   'P 1'
_cell_length_a   4.41449000
_cell_length_b   4.41442082
_cell_length_c   7.40773200
_cell_angle_alpha   90.00006649
_cell_angle_beta   89.99994835
_cell_angle_gamma   60.00002396
_symmetry_Int_Tables_number   1
_chemical_formula_structural   Sr(MnAs)2
_chemical_formula_sum   'Sr1 Mn2 As2'
_cell_volume   125.01734388
_cell_formula_units_Z   1
loop_
 _symmetry_equiv_pos_site_id
 _symmetry_equiv_pos_as_xyz
  1  'x, y, z'
loop_
 _atom_site_type_symbol
 _atom_site_label
 _atom_site_symmetry_multiplicity
 _atom_site_fract_x
 _atom_site_fract_y
 _atom_site_fract_z
 _atom_site_occupancy
  Sr  Sr0  1  0.00000000  0.00000000  0.99999900  1
  Mn  Mn1  1  0.33334000  0.33332700  0.37685300  1
  Mn  Mn2  1  0.66666000  0.66667300  0.62314600  1
  As  As3  1  0.66666900  0.66666700  0.26218000  1
  As  As4  1  0.33333100  0.33333200  0.73782200  1
loop_
 _atom_site_moment_label
 _atom_site_moment_crystalaxis_x
 _atom_site_moment_crystalaxis_y
 _atom_site_moment_crystalaxis_z
  Mn1  0.00000554  -0.00000495  -4.53600000
  Mn2  -0.00000554  0.00000495  4.53600000
  As3  -0.00000002  0.00000002  0.01800000
  As4  0.00000002  -0.00000002  -0.01800000
