# generated using pymatgen
data_KCrS2
_symmetry_space_group_name_H-M   'P 1'
_cell_length_a   3.70644559
_cell_length_b   3.70644514
_cell_length_c   7.45377101
_cell_angle_alpha   75.60372129
_cell_angle_beta   75.60371784
_cell_angle_gamma   60.00311598
_symmetry_Int_Tables_number   1
_chemical_formula_structural   KCrS2
_chemical_formula_sum   'K1 Cr1 S2'
_cell_volume   84.94870312
_cell_formula_units_Z   1
loop_
 _symmetry_equiv_pos_site_id
 _symmetry_equiv_pos_as_xyz
  1  'x, y, z'
loop_
 _atom_site_type_symbol
 _atom_site_label
 _atom_site_symmetry_multiplicity
 _atom_site_fract_x
 _atom_site_fract_y
 _atom_site_fract_z
 _atom_site_occupancy
  K  K0  1  0.50000000  0.50000000  0.50000000  1
  Cr  Cr1  1  0.00000000  0.00000000  0.00000000  1
  S  S2  1  0.27402100  0.27402100  0.17794200  1
  S  S3  1  0.72597900  0.72597900  0.82205800  1
loop_
 _atom_site_moment_label
 _atom_site_moment_crystalaxis_x
 _atom_site_moment_crystalaxis_y
 _atom_site_moment_crystalaxis_z
  K0  -0.00000011  -0.00000012  -0.00399994
  Cr1  0.00009101  0.00009157  3.17695460
  S2  -0.00000370  -0.00000372  -0.12899816
  S3  -0.00000370  -0.00000372  -0.12899816
