# generated using pymatgen
data_CoSe
_symmetry_space_group_name_H-M   'P 1'
_cell_length_a   3.77716100
_cell_length_b   3.77716242
_cell_length_c   5.16417200
_cell_angle_alpha   89.99931754
_cell_angle_beta   90.00068235
_cell_angle_gamma   120.00012472
_symmetry_Int_Tables_number   1
_chemical_formula_structural   CoSe
_chemical_formula_sum   'Co2 Se2'
_cell_volume   63.80606202
_cell_formula_units_Z   2
loop_
 _symmetry_equiv_pos_site_id
 _symmetry_equiv_pos_as_xyz
  1  'x, y, z'
loop_
 _atom_site_type_symbol
 _atom_site_label
 _atom_site_symmetry_multiplicity
 _atom_site_fract_x
 _atom_site_fract_y
 _atom_site_fract_z
 _atom_site_occupancy
  Co  Co0  1  0.00000000  0.00000000  0.00000000  1
  Co  Co1  1  0.00000000  0.00000000  0.50000000  1
  Se  Se2  1  0.33333400  0.66666700  0.24999200  1
  Se  Se3  1  0.66666600  0.33333300  0.75000800  1
loop_
 _atom_site_moment_label
 _atom_site_moment_crystalaxis_x
 _atom_site_moment_crystalaxis_y
 _atom_site_moment_crystalaxis_z
  Co0  -0.00000511  0.00000511  1.52300000
  Co1  -0.00000511  0.00000511  1.52300000
  Se2  0.00000042  -0.00000042  -0.12600000
  Se3  0.00000042  -0.00000042  -0.12600000
