# generated using pymatgen
data_Sr(FeAs)2
_symmetry_space_group_name_H-M   'P 1'
_cell_length_a   5.89807517
_cell_length_b   7.26477777
_cell_length_c   5.54672447
_cell_angle_alpha   67.55067587
_cell_angle_beta   90.00082407
_cell_angle_gamma   90.00025524
_symmetry_Int_Tables_number   1
_chemical_formula_structural   Sr(FeAs)2
_chemical_formula_sum   'Sr2 Fe4 As4'
_cell_volume   219.65620868
_cell_formula_units_Z   2
loop_
 _symmetry_equiv_pos_site_id
 _symmetry_equiv_pos_as_xyz
  1  'x, y, z'
loop_
 _atom_site_type_symbol
 _atom_site_label
 _atom_site_symmetry_multiplicity
 _atom_site_fract_x
 _atom_site_fract_y
 _atom_site_fract_z
 _atom_site_occupancy
  Sr  Sr0  1  0.49991300  0.99998800  0.49943000  1
  Sr  Sr1  1  0.00009100  0.99998900  0.99942900  1
  Fe  Fe2  1  0.25003400  0.50000100  0.00282500  1
  Fe  Fe3  1  0.24997100  0.49999800  0.50281400  1
  Fe  Fe4  1  0.75001400  0.49999200  0.49925500  1
  Fe  Fe5  1  0.74999400  0.50000000  0.99923800  1
  As  As6  1  0.00007500  0.26368400  0.36738800  1
  As  As7  1  0.49990800  0.26368600  0.86741700  1
  As  As8  1  0.49992500  0.73632800  0.13109100  1
  As  As9  1  0.00007700  0.73633300  0.63111200  1
loop_
 _atom_site_moment_label
 _atom_site_moment_crystalaxis_x
 _atom_site_moment_crystalaxis_y
 _atom_site_moment_crystalaxis_z
  Fe2  -1.48817103  -3.33413247  1.27297411
  Fe3  -1.48817103  -3.33413247  1.27297411
  Fe4  1.48817103  3.33413247  -1.27297411
  Fe5  1.48817103  3.33413247  -1.27297411
