# generated using pymatgen
data_K(CoSe)2
_symmetry_space_group_name_H-M   'P 1'
_cell_length_a   3.83288703
_cell_length_b   3.83582644
_cell_length_c   7.71256776
_cell_angle_alpha   104.71542598
_cell_angle_beta   104.30855634
_cell_angle_gamma   90.04892650
_symmetry_Int_Tables_number   1
_chemical_formula_structural   K(CoSe)2
_chemical_formula_sum   'K1 Co2 Se2'
_cell_volume   106.02563879
_cell_formula_units_Z   1
loop_
 _symmetry_equiv_pos_site_id
 _symmetry_equiv_pos_as_xyz
  1  'x, y, z'
loop_
 _atom_site_type_symbol
 _atom_site_label
 _atom_site_symmetry_multiplicity
 _atom_site_fract_x
 _atom_site_fract_y
 _atom_site_fract_z
 _atom_site_occupancy
  K  K0  1  0.00000700  0.99998700  0.99999500  1
  Co  Co1  1  0.75045300  0.25040800  0.49975900  1
  Co  Co2  1  0.24953900  0.74959500  0.50024400  1
  Se  Se3  1  0.35655000  0.35884400  0.71327300  1
  Se  Se4  1  0.64345100  0.64116600  0.28673000  1
loop_
 _atom_site_moment_label
 _atom_site_moment_crystalaxis_x
 _atom_site_moment_crystalaxis_y
 _atom_site_moment_crystalaxis_z
  K0  -0.00025220  -0.00021685  0.00987775
  Co1  -0.05427239  -0.04666621  2.12569159
  Co2  -0.05432283  -0.04670958  2.12766714
  Se3  -0.00370727  -0.00318770  0.14520291
  Se4  -0.00370727  -0.00318770  0.14520291
