# generated using pymatgen
data_BaVS3
_symmetry_space_group_name_H-M   'P 1'
_cell_length_a   5.85800463
_cell_length_b   6.79030456
_cell_length_c   11.76632964
_cell_angle_alpha   90.05181303
_cell_angle_beta   89.65262043
_cell_angle_gamma   89.97971065
_symmetry_Int_Tables_number   1
_chemical_formula_structural   BaVS3
_chemical_formula_sum   'Ba4 V4 S12'
_cell_volume   468.02794816
_cell_formula_units_Z   4
loop_
 _symmetry_equiv_pos_site_id
 _symmetry_equiv_pos_as_xyz
  1  'x, y, z'
loop_
 _atom_site_type_symbol
 _atom_site_label
 _atom_site_symmetry_multiplicity
 _atom_site_fract_x
 _atom_site_fract_y
 _atom_site_fract_z
 _atom_site_occupancy
  Ba  Ba0  1  0.24995400  0.49975800  0.16627800  1
  Ba  Ba1  1  0.24996900  0.00013900  0.66583000  1
  Ba  Ba2  1  0.74983900  0.99981100  0.33416900  1
  Ba  Ba3  1  0.74988800  0.50031600  0.83375000  1
  V  V4  1  0.00001900  0.50004500  0.50007900  1
  V  V5  1  0.49998000  0.50000100  0.49998100  1
  V  V6  1  0.00021100  0.00036000  0.99998700  1
  V  V7  1  0.50022400  0.99993600  0.99997400  1
  S  S8  1  0.75814800  0.24350100  0.08270500  1
  S  S9  1  0.74121800  0.74479500  0.58219300  1
  S  S10  1  0.24241700  0.74420500  0.41781300  1
  S  S11  1  0.25174200  0.24452000  0.91741000  1
  S  S12  1  0.25654600  0.00094200  0.16342900  1
  S  S13  1  0.24835200  0.50020900  0.66363000  1
  S  S14  1  0.75160100  0.49991300  0.33644900  1
  S  S15  1  0.74357400  0.99942300  0.83641900  1
  S  S16  1  0.25868300  0.25510100  0.41792800  1
  S  S17  1  0.24163200  0.75612000  0.91729700  1
  S  S18  1  0.74849400  0.75527900  0.08249300  1
  S  S19  1  0.75750900  0.25562600  0.58218900  1
loop_
 _atom_site_moment_label
 _atom_site_moment_crystalaxis_x
 _atom_site_moment_crystalaxis_y
 _atom_site_moment_crystalaxis_z
  Ba0  0.00000511  0.00099924  -0.00173161
  Ba1  -0.00000511  -0.00099924  0.00173161
  Ba2  -0.00000511  -0.00099924  0.00173161
  Ba3  0.00000511  0.00099924  -0.00173161
  V4  0.00292837  0.57306150  -0.99307892
  V5  0.00293602  0.57456036  -0.99567633
  V6  -0.00316325  -0.61902633  1.07273302
  V7  -0.00305857  -0.59854201  1.03723500
  S8  0.00015829  0.03097630  -0.05367994
  S9  -0.00010212  -0.01998471  0.03463222
  S10  -0.00009702  -0.01898547  0.03290061
  S11  0.00013021  0.02548050  -0.04415608
  S12  0.00013787  0.02697936  -0.04675350
  S13  -0.00013021  -0.02548050  0.04415608
  S14  -0.00013021  -0.02548050  0.04415608
  S15  0.00013787  0.02697936  -0.04675350
  S16  -0.00010212  -0.01998471  0.03463222
  S17  0.00015574  0.03047668  -0.05281414
  S18  0.00013021  0.02548050  -0.04415608
  S19  -0.00009702  -0.01898547  0.03290061
