# generated using pymatgen
data_FeAs
_symmetry_space_group_name_H-M   'P 1'
_cell_length_a   3.91060376
_cell_length_b   5.52132429
_cell_length_c   6.72896710
_cell_angle_alpha   89.81682393
_cell_angle_beta   89.98582327
_cell_angle_gamma   89.80144342
_symmetry_Int_Tables_number   1
_chemical_formula_structural   FeAs
_chemical_formula_sum   'Fe4 As4'
_cell_volume   145.28829750
_cell_formula_units_Z   4
loop_
 _symmetry_equiv_pos_site_id
 _symmetry_equiv_pos_as_xyz
  1  'x, y, z'
loop_
 _atom_site_type_symbol
 _atom_site_label
 _atom_site_symmetry_multiplicity
 _atom_site_fract_x
 _atom_site_fract_y
 _atom_site_fract_z
 _atom_site_occupancy
  Fe  Fe0  1  0.74963300  0.99738700  0.24499200  1
  Fe  Fe1  1  0.25039700  0.00259100  0.75501100  1
  Fe  Fe2  1  0.74962300  0.49748300  0.25530300  1
  Fe  Fe3  1  0.25033000  0.50252000  0.74470800  1
  As  As4  1  0.75037600  0.75734800  0.58387400  1
  As  As5  1  0.24975200  0.24287500  0.41612100  1
  As  As6  1  0.75014000  0.25708200  0.91626300  1
  As  As7  1  0.24975000  0.74271400  0.08372700  1
loop_
 _atom_site_moment_label
 _atom_site_moment_crystalaxis_x
 _atom_site_moment_crystalaxis_y
 _atom_site_moment_crystalaxis_z
  Fe0  -0.00082193  -0.00172357  3.34600517
  Fe1  -0.00082169  -0.00172306  3.34500517
  Fe2  -0.00082218  -0.00172409  3.34700517
  Fe3  -0.00082242  -0.00172460  3.34800517
  As4  0.00004888  0.00010251  -0.19900031
  As5  0.00004888  0.00010251  -0.19900031
  As6  0.00004888  0.00010251  -0.19900031
  As7  0.00004888  0.00010251  -0.19900031
