# generated using pymatgen
data_LiCrS2
_symmetry_space_group_name_H-M   'P 1'
_cell_length_a   3.53271357
_cell_length_b   24.15321500
_cell_length_c   3.53269500
_cell_angle_alpha   90.00065411
_cell_angle_beta   120.00021733
_cell_angle_gamma   89.99983416
_symmetry_Int_Tables_number   1
_chemical_formula_structural   LiCrS2
_chemical_formula_sum   'Li4 Cr4 S8'
_cell_volume   261.04729577
_cell_formula_units_Z   4
loop_
 _symmetry_equiv_pos_site_id
 _symmetry_equiv_pos_as_xyz
  1  'x, y, z'
loop_
 _atom_site_type_symbol
 _atom_site_label
 _atom_site_symmetry_multiplicity
 _atom_site_fract_x
 _atom_site_fract_y
 _atom_site_fract_z
 _atom_site_occupancy
  Li  Li0  1  0.00000100  0.12500000  0.99999900  1
  Li  Li1  1  0.00000000  0.37500000  0.00000100  1
  Li  Li2  1  0.00000200  0.62500000  0.00000200  1
  Li  Li3  1  0.99999900  0.87500000  0.99999700  1
  Cr  Cr4  1  0.00000300  0.50000000  0.00000100  1
  Cr  Cr5  1  0.99999700  0.75000000  0.99999600  1
  Cr  Cr6  1  0.00000600  0.00002000  0.00000300  1
  Cr  Cr7  1  0.99999500  0.24998100  0.99999800  1
  S  S8  1  0.66665800  0.05620000  0.33333800  1
  S  S9  1  0.66667000  0.30614300  0.33333500  1
  S  S10  1  0.66666700  0.55613800  0.33333500  1
  S  S11  1  0.66666900  0.80613900  0.33333300  1
  S  S12  1  0.33334200  0.19380000  0.66666500  1
  S  S13  1  0.33333300  0.44386100  0.66666800  1
  S  S14  1  0.33333100  0.69386200  0.66666200  1
  S  S15  1  0.33332900  0.94385700  0.66666500  1
loop_
 _atom_site_moment_label
 _atom_site_moment_crystalaxis_x
 _atom_site_moment_crystalaxis_y
 _atom_site_moment_crystalaxis_z
  Li0  0.00000000  -0.00200000  -0.00000001
  Li2  0.00000000  0.00200000  0.00000001
  Cr4  -0.00000580  -3.11300000  -0.00002082
  Cr5  -0.00000580  -3.11300000  -0.00002082
  Cr6  0.00000580  3.11300000  0.00002082
  Cr7  0.00000580  3.11300000  0.00002082
  S8  -0.00000019  -0.10200000  -0.00000068
  S9  -0.00000019  -0.10100000  -0.00000068
  S10  0.00000019  0.10200000  0.00000068
  S11  0.00000019  0.10100000  0.00000068
  S12  -0.00000019  -0.10200000  -0.00000068
  S13  0.00000019  0.10100000  0.00000068
  S14  0.00000019  0.10200000  0.00000068
  S15  -0.00000019  -0.10100000  -0.00000068
