# generated using pymatgen
data_Ca(MnSb)2
_symmetry_space_group_name_H-M   'P 1'
_cell_length_a   4.64590800
_cell_length_b   4.64583694
_cell_length_c   7.53764800
_cell_angle_alpha   90.00084966
_cell_angle_beta   90.00094752
_cell_angle_gamma   60.00012797
_symmetry_Int_Tables_number   1
_chemical_formula_structural   Ca(MnSb)2
_chemical_formula_sum   'Ca1 Mn2 Sb2'
_cell_volume   140.89695664
_cell_formula_units_Z   1
loop_
 _symmetry_equiv_pos_site_id
 _symmetry_equiv_pos_as_xyz
  1  'x, y, z'
loop_
 _atom_site_type_symbol
 _atom_site_label
 _atom_site_symmetry_multiplicity
 _atom_site_fract_x
 _atom_site_fract_y
 _atom_site_fract_z
 _atom_site_occupancy
  Ca  Ca0  1  0.00000100  0.00000000  0.99999600  1
  Mn  Mn1  1  0.33334400  0.33332500  0.37625500  1
  Mn  Mn2  1  0.66665500  0.66667500  0.62374800  1
  Sb  Sb3  1  0.33333000  0.33333100  0.75523500  1
  Sb  Sb4  1  0.66667000  0.66667000  0.24476600  1
loop_
 _atom_site_moment_label
 _atom_site_moment_crystalaxis_x
 _atom_site_moment_crystalaxis_y
 _atom_site_moment_crystalaxis_z
  Mn1  -0.00002799  -0.00002026  -4.56100000
  Mn2  0.00002799  0.00002026  4.56100000
  Sb3  -0.00000010  -0.00000007  -0.01600000
  Sb4  0.00000010  0.00000007  0.01600000
