# generated using pymatgen
data_Li(CoGe)6
_symmetry_space_group_name_H-M   'P 1'
_cell_length_a   5.05621365
_cell_length_b   5.05637029
_cell_length_c   7.77650800
_cell_angle_alpha   90.00064134
_cell_angle_beta   90.00082186
_cell_angle_gamma   58.84605516
_symmetry_Int_Tables_number   1
_chemical_formula_structural   Li(CoGe)6
_chemical_formula_sum   'Li1 Co6 Ge6'
_cell_volume   170.14188370
_cell_formula_units_Z   1
loop_
 _symmetry_equiv_pos_site_id
 _symmetry_equiv_pos_as_xyz
  1  'x, y, z'
loop_
 _atom_site_type_symbol
 _atom_site_label
 _atom_site_symmetry_multiplicity
 _atom_site_fract_x
 _atom_site_fract_y
 _atom_site_fract_z
 _atom_site_occupancy
  Li  Li0  1  0.00000000  0.99999900  0.99995800  1
  Co  Co1  1  0.00002300  0.49996700  0.24915900  1
  Co  Co2  1  0.49996900  0.00005000  0.24913300  1
  Co  Co3  1  0.49998600  0.49996700  0.74943500  1
  Co  Co4  1  0.99997700  0.50003300  0.75085100  1
  Co  Co5  1  0.50003000  0.99995100  0.75087700  1
  Co  Co6  1  0.50001400  0.50003200  0.25057500  1
  Ge  Ge7  1  0.33484300  0.33486700  0.99997900  1
  Ge  Ge8  1  0.66515700  0.66513400  0.99997700  1
  Ge  Ge9  1  0.66516300  0.66516800  0.50002700  1
  Ge  Ge10  1  0.33483600  0.33483100  0.50003200  1
  Ge  Ge11  1  0.99999200  0.00000500  0.66601500  1
  Ge  Ge12  1  0.00000900  0.99999500  0.33398300  1
loop_
 _atom_site_moment_label
 _atom_site_moment_crystalaxis_x
 _atom_site_moment_crystalaxis_y
 _atom_site_moment_crystalaxis_z
  Co1  -0.00000572  -0.00000255  -0.97500000
  Co2  -0.00000573  -0.00000256  -0.97600000
  Co3  -0.00000450  -0.00000201  -0.76600000
  Co4  0.00000569  0.00000254  0.97000000
  Co5  0.00000575  0.00000257  0.98000000
  Co6  0.00000448  0.00000200  0.76400000
  Ge11  -0.00000014  -0.00000006  -0.02400000
  Ge12  0.00000014  0.00000006  0.02400000
