# generated using pymatgen
data_BaVS3
_symmetry_space_group_name_H-M   'P 1'
_cell_length_a   5.81215493
_cell_length_b   11.61621114
_cell_length_c   6.92854588
_cell_angle_alpha   89.99995035
_cell_angle_beta   90.02670636
_cell_angle_gamma   90.04570039
_symmetry_Int_Tables_number   1
_chemical_formula_structural   BaVS3
_chemical_formula_sum   'Ba4 V4 S12'
_cell_volume   467.78209183
_cell_formula_units_Z   4
loop_
 _symmetry_equiv_pos_site_id
 _symmetry_equiv_pos_as_xyz
  1  'x, y, z'
loop_
 _atom_site_type_symbol
 _atom_site_label
 _atom_site_symmetry_multiplicity
 _atom_site_fract_x
 _atom_site_fract_y
 _atom_site_fract_z
 _atom_site_occupancy
  Ba  Ba0  1  0.25378900  0.33495300  0.00000100  1
  Ba  Ba1  1  0.25376600  0.83492600  0.50000200  1
  Ba  Ba2  1  0.75361500  0.65969800  0.00000200  1
  Ba  Ba3  1  0.75359300  0.15973100  0.50000100  1
  V  V4  1  0.48391400  0.47523600  0.50001500  1
  V  V5  1  0.98394700  0.51919500  0.50000800  1
  V  V6  1  0.48390800  0.97527300  0.00000800  1
  V  V7  1  0.98400800  0.01910900  0.00000800  1
  S  S8  1  0.24650600  0.82610600  0.99996500  1
  S  S9  1  0.24669200  0.32609200  0.49997100  1
  S  S10  1  0.74691200  0.16832700  0.99996400  1
  S  S11  1  0.74721100  0.66830100  0.49997600  1
  S  S12  1  0.26410100  0.57764700  0.74025700  1
  S  S13  1  0.26414700  0.07761800  0.24031800  1
  S  S14  1  0.26394900  0.57763700  0.25975600  1
  S  S15  1  0.26399900  0.07761000  0.75970500  1
  S  S16  1  0.76375800  0.41673300  0.25974900  1
  S  S17  1  0.76376700  0.91675500  0.75968400  1
  S  S18  1  0.76392200  0.41671900  0.74026900  1
  S  S19  1  0.76391500  0.91674400  0.24034300  1
loop_
 _atom_site_moment_label
 _atom_site_moment_crystalaxis_x
 _atom_site_moment_crystalaxis_y
 _atom_site_moment_crystalaxis_z
  Ba0  0.00064031  -0.00066257  0.00038802
  Ba1  -0.00064031  0.00066257  -0.00038802
  Ba2  0.00064031  -0.00066257  0.00038802
  Ba3  -0.00064031  0.00066257  -0.00038802
  V4  -0.80422734  0.83219032  -0.48735212
  V5  -0.80358703  0.83152775  -0.48696410
  V6  0.80422734  -0.83219032  0.48735212
  V7  0.80486765  -0.83285289  0.48774014
  S8  -0.06210991  0.06426948  -0.03763786
  S9  0.06210991  -0.06426948  0.03763786
  S10  -0.06275022  0.06493205  -0.03802588
  S11  0.06210991  -0.06426948  0.03763786
  S12  0.03585727  -0.03710403  0.02172908
  S13  -0.03585727  0.03710403  -0.02172908
  S14  0.03585727  -0.03710403  0.02172908
  S15  -0.03585727  0.03710403  -0.02172908
  S16  0.03585727  -0.03710403  0.02172908
  S17  -0.03585727  0.03710403  -0.02172908
  S18  0.03585727  -0.03710403  0.02172908
  S19  -0.03585727  0.03710403  -0.02172908
