# generated using pymatgen
data_CsCr5Se8
_symmetry_space_group_name_H-M   'P 1'
_cell_length_a   3.76139948
_cell_length_b   9.33939385
_cell_length_c   9.84038862
_cell_angle_alpha   104.25017945
_cell_angle_beta   101.00844304
_cell_angle_gamma   90.00152442
_symmetry_Int_Tables_number   1
_chemical_formula_structural   CsCr5Se8
_chemical_formula_sum   'Cs1 Cr5 Se8'
_cell_volume   328.48092231
_cell_formula_units_Z   1
loop_
 _symmetry_equiv_pos_site_id
 _symmetry_equiv_pos_as_xyz
  1  'x, y, z'
loop_
 _atom_site_type_symbol
 _atom_site_label
 _atom_site_symmetry_multiplicity
 _atom_site_fract_x
 _atom_site_fract_y
 _atom_site_fract_z
 _atom_site_occupancy
  Cs  Cs0  1  0.50000000  0.50000000  0.00000000  1
  Cr  Cr1  1  0.00000000  0.00000000  0.00000000  1
  Cr  Cr2  1  0.65990000  0.98354500  0.31991500  1
  Cr  Cr3  1  0.34009900  0.01645500  0.68008300  1
  Cr  Cr4  1  0.29521500  0.66609400  0.59048400  1
  Cr  Cr5  1  0.70478600  0.33390600  0.40951800  1
  Se  Se6  1  0.57500500  0.15345100  0.14986700  1
  Se  Se7  1  0.42499600  0.84654900  0.85013300  1
  Se  Se8  1  0.91154700  0.16458800  0.82303000  1
  Se  Se9  1  0.08845200  0.83541200  0.17697000  1
  Se  Se10  1  0.82788600  0.51113800  0.65571300  1
  Se  Se11  1  0.17211400  0.48886100  0.34428700  1
  Se  Se12  1  0.23906800  0.15804600  0.47824600  1
  Se  Se13  1  0.76093100  0.84195400  0.52175400  1
loop_
 _atom_site_moment_label
 _atom_site_moment_crystalaxis_x
 _atom_site_moment_crystalaxis_y
 _atom_site_moment_crystalaxis_z
  Cs0  0.00000020  0.00000367  -0.00999906
  Cr1  -0.00006363  -0.00119164  3.24669431
  Cr2  -0.00006459  -0.00120962  3.29568970
  Cr3  -0.00006459  -0.00120962  3.29568970
  Cr4  -0.00006499  -0.00121696  3.31568782
  Cr5  -0.00006499  -0.00121696  3.31568782
  Se6  0.00000398  0.00007450  -0.20298089
  Se7  0.00000398  0.00007450  -0.20298089
  Se8  0.00000417  0.00007817  -0.21297995
  Se9  0.00000417  0.00007817  -0.21297995
  Se10  0.00000506  0.00009469  -0.25797571
  Se11  0.00000506  0.00009469  -0.25797571
  Se12  0.00000335  0.00006276  -0.17098390
  Se13  0.00000335  0.00006276  -0.17098390
