# generated using pymatgen
data_NiSe
_symmetry_space_group_name_H-M   'P 1'
_cell_length_a   3.99323503
_cell_length_b   4.53326886
_cell_length_c   10.40631355
_cell_angle_alpha   89.19113041
_cell_angle_beta   90.16984417
_cell_angle_gamma   90.07104919
_symmetry_Int_Tables_number   1
_chemical_formula_structural   NiSe
_chemical_formula_sum   'Ni4 Se4'
_cell_volume   188.35959907
_cell_formula_units_Z   4
loop_
 _symmetry_equiv_pos_site_id
 _symmetry_equiv_pos_as_xyz
  1  'x, y, z'
loop_
 _atom_site_type_symbol
 _atom_site_label
 _atom_site_symmetry_multiplicity
 _atom_site_fract_x
 _atom_site_fract_y
 _atom_site_fract_z
 _atom_site_occupancy
  Ni  Ni0  1  0.00130100  0.99580400  0.52778200  1
  Ni  Ni1  1  0.49862000  0.50409300  0.97230000  1
  Ni  Ni2  1  0.99998400  0.99737100  0.02779400  1
  Ni  Ni3  1  0.49973700  0.50277100  0.47210700  1
  Se  Se4  1  0.49987100  0.00580600  0.38124600  1
  Se  Se5  1  0.49867100  0.00730500  0.88129200  1
  Se  Se6  1  0.00068800  0.49430200  0.11880500  1
  Se  Se7  1  0.00112700  0.49254800  0.61867500  1
loop_
 _atom_site_moment_label
 _atom_site_moment_crystalaxis_x
 _atom_site_moment_crystalaxis_y
 _atom_site_moment_crystalaxis_z
  Ni0  -0.00241598  0.01036192  -1.58511772
  Ni1  -0.00241598  0.01036192  -1.58511772
  Ni2  0.00241598  -0.01036192  1.58511772
  Ni3  0.00241598  -0.01036192  1.58511772
  Se4  -0.00003506  0.00015036  -0.02300171
  Se5  0.00003506  -0.00015036  0.02300171
  Se6  -0.00003506  0.00015036  -0.02300171
  Se7  0.00003506  -0.00015036  0.02300171
