# generated using pymatgen
data_Ca(FeP)2
_symmetry_space_group_name_H-M   'P 1'
_cell_length_a   5.61518203
_cell_length_b   6.72850107
_cell_length_c   5.39049189
_cell_angle_alpha   90.00051441
_cell_angle_beta   90.00256787
_cell_angle_gamma   65.31956676
_symmetry_Int_Tables_number   1
_chemical_formula_structural   Ca(FeP)2
_chemical_formula_sum   'Ca2 Fe4 P4'
_cell_volume   185.05788269
_cell_formula_units_Z   2
loop_
 _symmetry_equiv_pos_site_id
 _symmetry_equiv_pos_as_xyz
  1  'x, y, z'
loop_
 _atom_site_type_symbol
 _atom_site_label
 _atom_site_symmetry_multiplicity
 _atom_site_fract_x
 _atom_site_fract_y
 _atom_site_fract_z
 _atom_site_occupancy
  Ca  Ca0  1  0.50000200  0.99999500  0.50852300  1
  Ca  Ca1  1  0.99999600  0.00000000  0.00853800  1
  Fe  Fe2  1  0.50000600  0.49999800  0.24355000  1
  Fe  Fe3  1  0.50000900  0.49998000  0.74358400  1
  Fe  Fe4  1  0.00002400  0.49997700  0.74305000  1
  Fe  Fe5  1  0.99999600  0.49998800  0.24311100  1
  P  P6  1  0.36885500  0.26236000  0.00241400  1
  P  P7  1  0.86889100  0.26236300  0.50241800  1
  P  P8  1  0.13109500  0.73766000  0.50240600  1
  P  P9  1  0.63112700  0.73767900  0.00240600  1
loop_
 _atom_site_moment_label
 _atom_site_moment_crystalaxis_x
 _atom_site_moment_crystalaxis_y
 _atom_site_moment_crystalaxis_z
  Fe2  1.32907088  -3.18416545  -1.57663363
  Fe3  1.32907088  -3.18416545  -1.57663363
  Fe4  -1.32907088  3.18416545  1.57663363
  Fe5  -1.32907088  3.18416545  1.57663363
