# generated using pymatgen
data_CrAs
_symmetry_space_group_name_H-M   'P 1'
_cell_length_a   3.83935900
_cell_length_b   3.83936111
_cell_length_c   5.65480200
_cell_angle_alpha   89.99996852
_cell_angle_beta   90.00009543
_cell_angle_gamma   120.00005243
_symmetry_Int_Tables_number   1
_chemical_formula_structural   CrAs
_chemical_formula_sum   'Cr2 As2'
_cell_volume   72.18807978
_cell_formula_units_Z   2
loop_
 _symmetry_equiv_pos_site_id
 _symmetry_equiv_pos_as_xyz
  1  'x, y, z'
loop_
 _atom_site_type_symbol
 _atom_site_label
 _atom_site_symmetry_multiplicity
 _atom_site_fract_x
 _atom_site_fract_y
 _atom_site_fract_z
 _atom_site_occupancy
  Cr  Cr0  1  0.00000000  0.00000000  0.50000000  1
  Cr  Cr1  1  0.00000000  0.00000000  0.00000000  1
  As  As2  1  0.33333300  0.66666600  0.25000500  1
  As  As3  1  0.66666700  0.33333400  0.74999400  1
loop_
 _atom_site_moment_label
 _atom_site_moment_crystalaxis_x
 _atom_site_moment_crystalaxis_y
 _atom_site_moment_crystalaxis_z
  Cr0  -0.00000336  -0.00000069  -3.40300000
  Cr1  0.00000336  0.00000069  3.40300000
