# generated using pymatgen
data_Ca(MnAs)2
_symmetry_space_group_name_H-M   'P 1'
_cell_length_a   4.34960305
_cell_length_b   4.35111520
_cell_length_c   7.09779617
_cell_angle_alpha   90.02712940
_cell_angle_beta   90.01502865
_cell_angle_gamma   60.01925106
_symmetry_Int_Tables_number   1
_chemical_formula_structural   Ca(MnAs)2
_chemical_formula_sum   'Ca1 Mn2 As2'
_cell_volume   116.35593151
_cell_formula_units_Z   1
loop_
 _symmetry_equiv_pos_site_id
 _symmetry_equiv_pos_as_xyz
  1  'x, y, z'
loop_
 _atom_site_type_symbol
 _atom_site_label
 _atom_site_symmetry_multiplicity
 _atom_site_fract_x
 _atom_site_fract_y
 _atom_site_fract_z
 _atom_site_occupancy
  Ca  Ca0  1  0.00000500  0.00004200  0.00000000  1
  Mn  Mn1  1  0.66688700  0.66663400  0.62657300  1
  Mn  Mn2  1  0.33337400  0.33348400  0.37339500  1
  As  As3  1  0.66663700  0.66644900  0.24898900  1
  As  As4  1  0.33309700  0.33339100  0.75104400  1
loop_
 _atom_site_moment_label
 _atom_site_moment_crystalaxis_x
 _atom_site_moment_crystalaxis_y
 _atom_site_moment_crystalaxis_z
  Mn1  -0.00006064  -0.00096957  -4.52600036
  Mn2  0.00006064  0.00096957  4.52600036
  As3  -0.00000019  -0.00000300  -0.01400000
  As4  0.00000019  0.00000300  0.01400000
