# generated using pymatgen
data_CsFe2S3
_symmetry_space_group_name_H-M   'P 1'
_cell_length_a   5.76666700
_cell_length_b   7.90413197
_cell_length_c   7.90340225
_cell_angle_alpha   103.14847922
_cell_angle_beta   90.00070113
_cell_angle_gamma   89.99992328
_symmetry_Int_Tables_number   1
_chemical_formula_structural   CsFe2S3
_chemical_formula_sum   'Cs2 Fe4 S6'
_cell_volume   350.79686802
_cell_formula_units_Z   2
loop_
 _symmetry_equiv_pos_site_id
 _symmetry_equiv_pos_as_xyz
  1  'x, y, z'
loop_
 _atom_site_type_symbol
 _atom_site_label
 _atom_site_symmetry_multiplicity
 _atom_site_fract_x
 _atom_site_fract_y
 _atom_site_fract_z
 _atom_site_occupancy
  Cs  Cs0  1  0.24999900  0.32748700  0.67251200  1
  Cs  Cs1  1  0.75000000  0.67251300  0.32748800  1
  Fe  Fe2  1  0.50000500  0.15305300  0.15304900  1
  Fe  Fe3  1  0.50000000  0.85931700  0.85931700  1
  Fe  Fe4  1  0.99999700  0.84695500  0.84696100  1
  Fe  Fe5  1  0.00000500  0.14068300  0.14068200  1
  S  S6  1  0.25000300  0.89595200  0.10407700  1
  S  S7  1  0.74999800  0.10405000  0.89592000  1
  S  S8  1  0.26380600  0.84021600  0.62930000  1
  S  S9  1  0.76382000  0.15978200  0.37069700  1
  S  S10  1  0.73618100  0.62931500  0.84023000  1
  S  S11  1  0.23618700  0.37067900  0.15976700  1
loop_
 _atom_site_moment_label
 _atom_site_moment_crystalaxis_x
 _atom_site_moment_crystalaxis_y
 _atom_site_moment_crystalaxis_z
  Fe2  -0.00002049  0.00374828  -3.52014547
  Fe3  -0.00002183  0.00399419  -3.75108940
  Fe4  0.00002050  -0.00374935  3.52114522
  Fe5  0.00002184  -0.00399526  3.75208916
  S8  -0.00000049  0.00008942  -0.08397961
  S9  0.00000049  -0.00008942  0.08397961
  S10  -0.00000049  0.00008942  -0.08397961
  S11  0.00000049  -0.00008942  0.08397961
