# generated using pymatgen
data_Sr(CoAs)2
_symmetry_space_group_name_H-M   'P 1'
_cell_length_a   4.05926070
_cell_length_b   4.05926014
_cell_length_c   6.27281058
_cell_angle_alpha   108.79014475
_cell_angle_beta   108.79009310
_cell_angle_gamma   90.03186549
_symmetry_Int_Tables_number   1
_chemical_formula_structural   Sr(CoAs)2
_chemical_formula_sum   'Sr1 Co2 As2'
_cell_volume   92.00765082
_cell_formula_units_Z   1
loop_
 _symmetry_equiv_pos_site_id
 _symmetry_equiv_pos_as_xyz
  1  'x, y, z'
loop_
 _atom_site_type_symbol
 _atom_site_label
 _atom_site_symmetry_multiplicity
 _atom_site_fract_x
 _atom_site_fract_y
 _atom_site_fract_z
 _atom_site_occupancy
  Sr  Sr0  1  0.00000000  0.00000000  0.00000000  1
  Co  Co1  1  0.24984900  0.75015000  0.50000000  1
  Co  Co2  1  0.75015100  0.24984900  0.50000000  1
  As  As3  1  0.35172000  0.35172000  0.70400800  1
  As  As4  1  0.64828000  0.64828000  0.29599200  1
loop_
 _atom_site_moment_label
 _atom_site_moment_crystalaxis_x
 _atom_site_moment_crystalaxis_y
 _atom_site_moment_crystalaxis_z
  Sr0  0.00012028  0.00012028  0.00607557
  Co1  0.01607688  0.01607715  0.81210162
  Co2  0.01607688  0.01607715  0.81210162
  As3  -0.00008018  -0.00008019  -0.00405038
  As4  -0.00008018  -0.00008019  -0.00405038
