# generated using pymatgen
data_Mn3As2
_symmetry_space_group_name_H-M   'P 1'
_cell_length_a   3.98582859
_cell_length_b   13.63236270
_cell_length_c   7.59070407
_cell_angle_alpha   90.09995284
_cell_angle_beta   105.29326590
_cell_angle_gamma   89.96101076
_symmetry_Int_Tables_number   1
_chemical_formula_structural   Mn3As2
_chemical_formula_sum   'Mn12 As8'
_cell_volume   397.84434099
_cell_formula_units_Z   4
loop_
 _symmetry_equiv_pos_site_id
 _symmetry_equiv_pos_as_xyz
  1  'x, y, z'
loop_
 _atom_site_type_symbol
 _atom_site_label
 _atom_site_symmetry_multiplicity
 _atom_site_fract_x
 _atom_site_fract_y
 _atom_site_fract_z
 _atom_site_occupancy
  Mn  Mn0  1  0.03048500  0.81232000  0.06106800  1
  Mn  Mn1  1  0.96986000  0.31187300  0.93920300  1
  Mn  Mn2  1  0.76789500  0.18126200  0.53554400  1
  Mn  Mn3  1  0.23278600  0.68017000  0.46377100  1
  Mn  Mn4  1  0.62445000  0.98095300  0.24736000  1
  Mn  Mn5  1  0.37603400  0.48088100  0.75310400  1
  Mn  Mn6  1  0.82368600  0.89937700  0.64842100  1
  Mn  Mn7  1  0.17588100  0.39818000  0.35264500  1
  Mn  Mn8  1  0.43060800  0.11687900  0.86121400  1
  Mn  Mn9  1  0.56787800  0.61817700  0.13551200  1
  Mn  Mn10  1  0.88727700  0.64495100  0.77458100  1
  Mn  Mn11  1  0.11275200  0.14585100  0.22607800  1
  As  As12  1  0.74194600  0.53113700  0.48598900  1
  As  As13  1  0.25729100  0.03140300  0.51326700  1
  As  As14  1  0.59972500  0.26957800  0.19971400  1
  As  As15  1  0.40038900  0.76901600  0.80025100  1
  As  As16  1  0.65810000  0.79027400  0.31484200  1
  As  As17  1  0.34260100  0.29017200  0.68627900  1
  As  As18  1  0.99073800  0.00402500  0.98120100  1
  As  As19  1  0.00961600  0.50351600  0.01995600  1
loop_
 _atom_site_moment_label
 _atom_site_moment_crystalaxis_x
 _atom_site_moment_crystalaxis_y
 _atom_site_moment_crystalaxis_z
  Mn0  0.00056838  -4.50100536  -0.00393028
  Mn1  0.00056825  -4.50000536  -0.00392941
  Mn2  0.00056926  -4.50800537  -0.00393639
  Mn3  0.00056939  -4.50900537  -0.00393727
  Mn4  0.00056813  -4.49900536  -0.00392853
  Mn5  0.00056825  -4.50000536  -0.00392941
  Mn6  -0.00057659  4.56600544  0.00398704
  Mn7  -0.00057633  4.56400544  0.00398529
  Mn8  -0.00056699  4.49000535  0.00392067
  Mn9  -0.00056712  4.49100535  0.00392155
  Mn10  -0.00055828  4.42100527  0.00386042
  Mn11  -0.00055828  4.42100527  0.00386042
  As12  0.00000101  -0.00800001  -0.00000699
  As13  0.00000126  -0.01000001  -0.00000873
  As14  -0.00000152  0.01200001  0.00001048
  As15  -0.00000164  0.01300002  0.00001135
  As16  -0.00000202  0.01600002  0.00001397
  As17  -0.00000164  0.01300002  0.00001135
  As18  0.00000025  -0.00200000  -0.00000175
