# generated using pymatgen
data_NaCrS2
_symmetry_space_group_name_H-M   'P 1'
_cell_length_a   3.62266609
_cell_length_b   3.62262799
_cell_length_c   6.84884027
_cell_angle_alpha   74.66568743
_cell_angle_beta   74.66522963
_cell_angle_gamma   59.99915026
_symmetry_Int_Tables_number   1
_chemical_formula_structural   NaCrS2
_chemical_formula_sum   'Na1 Cr1 S2'
_cell_volume   74.12084978
_cell_formula_units_Z   1
loop_
 _symmetry_equiv_pos_site_id
 _symmetry_equiv_pos_as_xyz
  1  'x, y, z'
loop_
 _atom_site_type_symbol
 _atom_site_label
 _atom_site_symmetry_multiplicity
 _atom_site_fract_x
 _atom_site_fract_y
 _atom_site_fract_z
 _atom_site_occupancy
  Na  Na0  1  0.50000000  0.50000000  0.50000000  1
  Cr  Cr1  1  0.00000000  0.00000000  0.00000000  1
  S  S2  1  0.73350100  0.73350300  0.79942100  1
  S  S3  1  0.26649900  0.26649800  0.20057900  1
loop_
 _atom_site_moment_label
 _atom_site_moment_crystalaxis_x
 _atom_site_moment_crystalaxis_y
 _atom_site_moment_crystalaxis_z
  Na0  0.00000037  0.00000036  -0.00100019
  Cr1  -0.00117841  -0.00114367  3.15061350
  S2  0.00004414  0.00004284  -0.11802298
  S3  0.00004414  0.00004284  -0.11802298
