# generated using pymatgen
data_Sn2Ru
_symmetry_space_group_name_H-M   'P 1'
_cell_length_a   5.47625275
_cell_length_b   5.47686865
_cell_length_c   9.32452156
_cell_angle_alpha   90.00022842
_cell_angle_beta   89.99998910
_cell_angle_gamma   119.17055666
_symmetry_Int_Tables_number   1
_chemical_formula_structural   Sn2Ru
_chemical_formula_sum   'Sn8 Ru4'
_cell_volume   244.19822215
_cell_formula_units_Z   4
loop_
 _symmetry_equiv_pos_site_id
 _symmetry_equiv_pos_as_xyz
  1  'x, y, z'
loop_
 _atom_site_type_symbol
 _atom_site_label
 _atom_site_symmetry_multiplicity
 _atom_site_fract_x
 _atom_site_fract_y
 _atom_site_fract_z
 _atom_site_occupancy
  Sn  Sn0  1  0.25000000  0.74999900  0.40946500  1
  Sn  Sn1  1  0.75000500  0.25000900  0.90945400  1
  Sn  Sn2  1  0.90794400  0.09203000  0.25001700  1
  Sn  Sn3  1  0.40794500  0.59202700  0.74998700  1
  Sn  Sn4  1  0.59203400  0.40795800  0.25001800  1
  Sn  Sn5  1  0.09206000  0.90797500  0.74998600  1
  Sn  Sn6  1  0.25000200  0.75000100  0.09053800  1
  Sn  Sn7  1  0.75000200  0.25000100  0.59052100  1
  Ru  Ru8  1  0.25000200  0.25000000  0.49997500  1
  Ru  Ru9  1  0.75000100  0.75000000  0.50003300  1
  Ru  Ru10  1  0.75000300  0.75000100  0.99997500  1
  Ru  Ru11  1  0.25000100  0.24999900  0.00003200  1
loop_
 _atom_site_moment_label
 _atom_site_moment_crystalaxis_x
 _atom_site_moment_crystalaxis_y
 _atom_site_moment_crystalaxis_z
  Sn0  -0.02069144  -0.02069222  0.03289473
  Sn1  0.02069144  0.02069222  -0.03289473
  Sn6  0.02069144  0.02069222  -0.03289473
  Sn7  -0.02069144  -0.02069222  0.03289473
  Ru8  0.59421562  0.59423806  -0.94466911
  Ru9  0.59527672  0.59529920  -0.94635602
  Ru10  -0.59421562  -0.59423806  0.94466911
  Ru11  -0.59368507  -0.59370749  0.94382565
