# generated using pymatgen
data_Ca(CoAs)2
_symmetry_space_group_name_H-M   'P 1'
_cell_length_a   4.04613948
_cell_length_b   5.79558550
_cell_length_c   4.05057947
_cell_angle_alpha   69.64355661
_cell_angle_beta   89.97671668
_cell_angle_gamma   110.32527289
_symmetry_Int_Tables_number   1
_chemical_formula_structural   Ca(CoAs)2
_chemical_formula_sum   'Ca1 Co2 As2'
_cell_volume   82.71033674
_cell_formula_units_Z   1
loop_
 _symmetry_equiv_pos_site_id
 _symmetry_equiv_pos_as_xyz
  1  'x, y, z'
loop_
 _atom_site_type_symbol
 _atom_site_label
 _atom_site_symmetry_multiplicity
 _atom_site_fract_x
 _atom_site_fract_y
 _atom_site_fract_z
 _atom_site_occupancy
  Ca  Ca0  1  0.00005400  0.00010900  0.99995600  1
  Co  Co1  1  0.25028400  0.50092600  0.24942900  1
  Co  Co2  1  0.74969700  0.49903200  0.75058800  1
  As  As3  1  0.36265600  0.72561800  0.63737400  1
  As  As4  1  0.63730900  0.27431500  0.36265300  1
loop_
 _atom_site_moment_label
 _atom_site_moment_crystalaxis_x
 _atom_site_moment_crystalaxis_y
 _atom_site_moment_crystalaxis_z
  Ca0  0.00004840  0.00403151  -0.00276144
  Co1  0.01018898  0.84863220  -0.58128346
  Co2  0.01017688  0.84762432  -0.58059310
  As3  -0.00004840  -0.00403151  0.00276144
  As4  -0.00004840  -0.00403151  0.00276144
