# generated using pymatgen
data_CsMnAs
_symmetry_space_group_name_H-M   'P 1'
_cell_length_a   4.53323900
_cell_length_b   4.54771500
_cell_length_c   23.21933900
_cell_angle_alpha   90.00008988
_cell_angle_beta   90.00001511
_cell_angle_gamma   89.99979810
_symmetry_Int_Tables_number   1
_chemical_formula_structural   CsMnAs
_chemical_formula_sum   'Cs4 Mn4 As4'
_cell_volume   478.68708326
_cell_formula_units_Z   4
loop_
 _symmetry_equiv_pos_site_id
 _symmetry_equiv_pos_as_xyz
  1  'x, y, z'
loop_
 _atom_site_type_symbol
 _atom_site_label
 _atom_site_symmetry_multiplicity
 _atom_site_fract_x
 _atom_site_fract_y
 _atom_site_fract_z
 _atom_site_occupancy
  Cs  Cs0  1  0.50000000  0.00000000  0.36293300  1
  Cs  Cs1  1  0.50000000  0.00000100  0.86287200  1
  Cs  Cs2  1  0.00000000  0.50000000  0.13715300  1
  Cs  Cs3  1  0.00000000  0.49999900  0.63703900  1
  Mn  Mn4  1  0.50000000  0.49999900  0.50012000  1
  Mn  Mn5  1  0.00000000  0.00000100  0.99978400  1
  Mn  Mn6  1  0.50000000  0.50000000  0.00023200  1
  Mn  Mn7  1  0.00000000  0.00000000  0.49986400  1
  As  As8  1  0.50000000  0.00000000  0.06377000  1
  As  As9  1  0.50000000  0.99999900  0.56365800  1
  As  As10  1  0.00000000  0.50000000  0.43632700  1
  As  As11  1  0.00000000  0.50000100  0.93624900  1
loop_
 _atom_site_moment_label
 _atom_site_moment_crystalaxis_x
 _atom_site_moment_crystalaxis_y
 _atom_site_moment_crystalaxis_z
  Mn4  -0.00000019  -0.00000312  -4.52100000
  Mn5  -0.00000019  -0.00000312  -4.52100000
  Mn6  0.00000019  0.00000312  4.52100000
  Mn7  0.00000019  0.00000312  4.52100000
  As9  0.00000000  0.00000000  -0.00400000
  As10  0.00000000  0.00000000  0.00300000
