# generated using pymatgen
data_K2CoS2
_symmetry_space_group_name_H-M   'P 1'
_cell_length_a   6.11791406
_cell_length_b   6.79609835
_cell_length_c   12.67523402
_cell_angle_alpha   90.00054029
_cell_angle_beta   89.99997576
_cell_angle_gamma   90.00033019
_symmetry_Int_Tables_number   1
_chemical_formula_structural   K2CoS2
_chemical_formula_sum   'K8 Co4 S8'
_cell_volume   527.01019167
_cell_formula_units_Z   4
loop_
 _symmetry_equiv_pos_site_id
 _symmetry_equiv_pos_as_xyz
  1  'x, y, z'
loop_
 _atom_site_type_symbol
 _atom_site_label
 _atom_site_symmetry_multiplicity
 _atom_site_fract_x
 _atom_site_fract_y
 _atom_site_fract_z
 _atom_site_occupancy
  K  K0  1  0.50000400  0.33401200  0.14632700  1
  K  K1  1  0.99999000  0.83402300  0.64631800  1
  K  K2  1  0.99999300  0.16597800  0.35368200  1
  K  K3  1  0.50000600  0.66598700  0.85367300  1
  K  K4  1  0.99999700  0.66598800  0.14632600  1
  K  K5  1  0.50001000  0.16598000  0.64631700  1
  K  K6  1  0.50000800  0.83401900  0.35368400  1
  K  K7  1  0.99999300  0.33401100  0.85367300  1
  Co  Co8  1  0.74999900  0.50000100  0.49999600  1
  Co  Co9  1  0.75000000  0.00000000  0.00000400  1
  Co  Co10  1  0.25000100  0.00000000  0.99999600  1
  Co  Co11  1  0.25000000  0.50000000  0.50000400  1
  S  S12  1  0.49998800  0.81784600  0.09954800  1
  S  S13  1  0.00001000  0.31784400  0.59954000  1
  S  S14  1  0.00001100  0.68215500  0.40046000  1
  S  S15  1  0.49998800  0.18215400  0.90045300  1
  S  S16  1  0.49999100  0.31785300  0.40045800  1
  S  S17  1  0.00001400  0.81785200  0.90045100  1
  S  S18  1  0.00001100  0.18214800  0.09954900  1
  S  S19  1  0.49998800  0.68214800  0.59954200  1
loop_
 _atom_site_moment_label
 _atom_site_moment_crystalaxis_x
 _atom_site_moment_crystalaxis_y
 _atom_site_moment_crystalaxis_z
  Co8  0.87519239  1.00418672  -1.87131835
  Co9  0.87557341  1.00462390  -1.87213303
  Co10  -0.87595442  -1.00506107  1.87294771
  Co11  -0.87633544  -1.00549824  1.87376239
