# generated using pymatgen
data_Cs(CoS)2
_symmetry_space_group_name_H-M   'P 1'
_cell_length_a   3.83175917
_cell_length_b   3.81782281
_cell_length_c   14.72638903
_cell_angle_alpha   90.00037640
_cell_angle_beta   90.05453578
_cell_angle_gamma   89.97954920
_symmetry_Int_Tables_number   1
_chemical_formula_structural   Cs(CoS)2
_chemical_formula_sum   'Cs2 Co4 S4'
_cell_volume   215.43190358
_cell_formula_units_Z   2
loop_
 _symmetry_equiv_pos_site_id
 _symmetry_equiv_pos_as_xyz
  1  'x, y, z'
loop_
 _atom_site_type_symbol
 _atom_site_label
 _atom_site_symmetry_multiplicity
 _atom_site_fract_x
 _atom_site_fract_y
 _atom_site_fract_z
 _atom_site_occupancy
  Cs  Cs0  1  0.00009300  0.00002000  0.99929400  1
  Cs  Cs1  1  0.49993000  0.50001800  0.50081800  1
  Co  Co2  1  0.50028900  0.99992000  0.75040200  1
  Co  Co3  1  0.99965100  0.50010500  0.74960700  1
  Co  Co4  1  0.00113000  0.50006100  0.25033900  1
  Co  Co5  1  0.49863300  0.00099300  0.24966600  1
  S  S6  1  0.99821600  0.99905300  0.34367400  1
  S  S7  1  0.50058700  0.50015800  0.84363100  1
  S  S8  1  0.50201900  0.49984200  0.15625900  1
  S  S9  1  0.99945100  0.99983000  0.65631100  1
loop_
 _atom_site_moment_label
 _atom_site_moment_crystalaxis_x
 _atom_site_moment_crystalaxis_y
 _atom_site_moment_crystalaxis_z
  Co2  0.55875919  0.55974561  -2.05339998
  Co3  0.55875919  0.55974561  -2.05339998
  Co4  -0.56282104  -0.56381464  2.06832701
  Co5  -0.56282104  -0.56381464  2.06832701
  S6  -0.04594976  -0.04603088  0.16886206
  S7  0.04468043  0.04475930  -0.16419736
  S8  -0.04544202  -0.04552225  0.16699618
  S9  0.04468043  0.04475930  -0.16419736
