# generated using pymatgen
data_CsCr5S8
_symmetry_space_group_name_H-M   'P 1'
_cell_length_a   3.56235178
_cell_length_b   11.15369050
_cell_length_c   14.46611054
_cell_angle_alpha   87.42065674
_cell_angle_beta   82.94037433
_cell_angle_gamma   80.80767678
_symmetry_Int_Tables_number   1
_chemical_formula_structural   CsCr5S8
_chemical_formula_sum   'Cs2 Cr10 S16'
_cell_volume   562.91524806
_cell_formula_units_Z   2
loop_
 _symmetry_equiv_pos_site_id
 _symmetry_equiv_pos_as_xyz
  1  'x, y, z'
loop_
 _atom_site_type_symbol
 _atom_site_label
 _atom_site_symmetry_multiplicity
 _atom_site_fract_x
 _atom_site_fract_y
 _atom_site_fract_z
 _atom_site_occupancy
  Cs  Cs0  1  0.50000100  0.24999900  0.75000000  1
  Cs  Cs1  1  0.49999800  0.75000200  0.25000200  1
  Cr  Cr2  1  0.00000000  0.50000000  0.50000000  1
  Cr  Cr3  1  0.66068700  0.34878000  0.32998800  1
  Cr  Cr4  1  0.33931300  0.65122000  0.67001200  1
  Cr  Cr5  1  0.70513100  0.62796600  0.96181900  1
  Cr  Cr6  1  0.29486700  0.37203700  0.03818200  1
  Cr  Cr7  1  0.00000100  0.99999900  0.99999900  1
  Cr  Cr8  1  0.66068400  0.84876900  0.82999600  1
  Cr  Cr9  1  0.33932600  0.15121400  0.16999400  1
  Cr  Cr10  1  0.70513400  0.12796700  0.46181400  1
  Cr  Cr11  1  0.29486500  0.87203800  0.53818600  1
  S  S12  1  0.42386300  0.15040500  0.00170500  1
  S  S13  1  0.42386300  0.65040400  0.50170700  1
  S  S14  1  0.57613600  0.84959600  0.99829500  1
  S  S15  1  0.57613700  0.34959800  0.49829300  1
  S  S16  1  0.91168600  0.50711800  0.66964500  1
  S  S17  1  0.91169600  0.00711300  0.16963500  1
  S  S18  1  0.08831300  0.49288400  0.33035600  1
  S  S19  1  0.08830400  0.99288500  0.83036500  1
  S  S20  1  0.82685600  0.41588900  0.93038500  1
  S  S21  1  0.82685800  0.91588200  0.43039000  1
  S  S22  1  0.17314200  0.58411300  0.06961600  1
  S  S23  1  0.17313900  0.08411900  0.56961100  1
  S  S24  1  0.76117100  0.31756600  0.16004100  1
  S  S25  1  0.76117500  0.81755300  0.66004600  1
  S  S26  1  0.23883000  0.68243400  0.83995900  1
  S  S27  1  0.23882400  0.18244900  0.33995400  1
loop_
 _atom_site_moment_label
 _atom_site_moment_crystalaxis_x
 _atom_site_moment_crystalaxis_y
 _atom_site_moment_crystalaxis_z
  Cr2  1.19100814  -1.86597719  -2.41516695
  Cr3  1.18871627  -1.86238647  -2.41051942
  Cr4  1.18871627  -1.86238647  -2.41051942
  Cr5  1.20361343  -1.88572615  -2.44072837
  Cr6  1.20361343  -1.88572615  -2.44072837
  Cr7  -1.19100814  1.86597719  2.41516695
  Cr8  -1.18871627  1.86238647  2.41051942
  Cr9  -1.18871627  1.86238647  2.41051942
  Cr10  -1.20361343  1.88572615  2.44072837
  Cr11  -1.20361343  1.88572615  2.44072837
  S12  0.03628793  -0.05685306  -0.07358591
  S13  -0.03628793  0.05685306  0.07358591
  S14  0.03628793  -0.05685306  -0.07358591
  S15  -0.03628793  0.05685306  0.07358591
  S16  -0.05844267  0.09156335  0.11851204
  S17  0.05844267  -0.09156335  -0.11851204
  S18  -0.05844267  0.09156335  0.11851204
  S19  0.05844267  -0.09156335  -0.11851204
  S20  -0.06952004  0.10891849  0.14097511
  S21  0.06952004  -0.10891849  -0.14097511
  S22  -0.06952004  0.10891849  0.14097511
  S23  0.06952004  -0.10891849  -0.14097511
  S24  -0.00763956  0.01196906  0.01549177
  S25  0.00763956  -0.01196906  -0.01549177
  S26  -0.00763956  0.01196906  0.01549177
  S27  0.00763956  -0.01196906  -0.01549177
