# generated using pymatgen
data_V3As2
_symmetry_space_group_name_H-M   'P 1'
_cell_length_a   3.73849055
_cell_length_b   9.94984739
_cell_length_c   9.96469564
_cell_angle_alpha   90.17268138
_cell_angle_beta   89.96760252
_cell_angle_gamma   89.94772223
_symmetry_Int_Tables_number   1
_chemical_formula_structural   V3As2
_chemical_formula_sum   'V12 As8'
_cell_volume   370.65897574
_cell_formula_units_Z   4
loop_
 _symmetry_equiv_pos_site_id
 _symmetry_equiv_pos_as_xyz
  1  'x, y, z'
loop_
 _atom_site_type_symbol
 _atom_site_label
 _atom_site_symmetry_multiplicity
 _atom_site_fract_x
 _atom_site_fract_y
 _atom_site_fract_z
 _atom_site_occupancy
  V  V0  1  0.50003400  0.50000800  0.49999600  1
  V  V1  1  0.00000200  0.99999600  0.99997700  1
  V  V2  1  0.99938700  0.27771900  0.39079900  1
  V  V3  1  0.99954100  0.38982500  0.72593100  1
  V  V4  1  0.00045900  0.61018600  0.27406300  1
  V  V5  1  0.00062800  0.72227400  0.60918500  1
  V  V6  1  0.50000100  0.50003000  0.00005400  1
  V  V7  1  0.49998900  0.99996600  0.50003600  1
  V  V8  1  0.49987300  0.17459100  0.13154700  1
  V  V9  1  0.50001100  0.13496200  0.82141700  1
  V  V10  1  0.49998100  0.86504700  0.17857200  1
  V  V11  1  0.50011700  0.82540600  0.86844900  1
  As  As12  1  0.49978200  0.40998500  0.25634900  1
  As  As13  1  0.50008500  0.25344900  0.57955500  1
  As  As14  1  0.49990200  0.74653800  0.42042600  1
  As  As15  1  0.50022500  0.59001200  0.74364300  1
  As  As16  1  0.99985400  0.03955500  0.28418800  1
  As  As17  1  0.00003300  0.28203200  0.96416100  1
  As  As18  1  0.99996900  0.71798000  0.03583900  1
  As  As19  1  0.00012800  0.96043800  0.71581200  1
loop_
 _atom_site_moment_label
 _atom_site_moment_crystalaxis_x
 _atom_site_moment_crystalaxis_y
 _atom_site_moment_crystalaxis_z
  V0  -2.27100099  0.00104581  0.00064732
  V1  -2.45300107  0.00112963  0.00069919
  V2  -2.22100097  0.00102279  0.00063306
  V3  -2.48700108  0.00114528  0.00070888
  V4  -2.48700108  0.00114528  0.00070888
  V5  -2.22100097  0.00102279  0.00063306
  V6  2.68100117  -0.00123462  -0.00076418
  V7  2.66100116  -0.00122541  -0.00075848
  V8  2.52700110  -0.00116370  -0.00072029
  V9  2.57300112  -0.00118489  -0.00073340
  V10  2.57300112  -0.00118489  -0.00073340
  V11  2.52700110  -0.00116370  -0.00072029
  As12  0.07100003  -0.00003270  -0.00002024
  As13  0.06300003  -0.00002901  -0.00001796
  As14  0.06300003  -0.00002901  -0.00001796
  As15  0.07100003  -0.00003270  -0.00002024
  As16  -0.01100000  0.00000507  0.00000314
  As17  -0.02100001  0.00000967  0.00000599
  As18  -0.02100001  0.00000967  0.00000599
  As19  -0.01100000  0.00000507  0.00000314
