# generated using pymatgen
data_RbFeS2
_symmetry_space_group_name_H-M   'P 1'
_cell_length_a   5.69709421
_cell_length_b   7.07276423
_cell_length_c   7.07074910
_cell_angle_alpha   116.84582497
_cell_angle_beta   101.36929158
_cell_angle_gamma   101.38557237
_symmetry_Int_Tables_number   1
_chemical_formula_structural   RbFeS2
_chemical_formula_sum   'Rb2 Fe2 S4'
_cell_volume   235.47535561
_cell_formula_units_Z   2
loop_
 _symmetry_equiv_pos_site_id
 _symmetry_equiv_pos_as_xyz
  1  'x, y, z'
loop_
 _atom_site_type_symbol
 _atom_site_label
 _atom_site_symmetry_multiplicity
 _atom_site_fract_x
 _atom_site_fract_y
 _atom_site_fract_z
 _atom_site_occupancy
  Rb  Rb0  1  0.24999300  0.35429100  0.64571200  1
  Rb  Rb1  1  0.75000600  0.64570600  0.35428700  1
  Fe  Fe2  1  0.25000100  0.99698800  0.00305000  1
  Fe  Fe3  1  0.74999900  0.00301400  0.99695000  1
  S  S4  1  0.59805500  0.08668000  0.29103500  1
  S  S5  1  0.90190600  0.70901900  0.91330800  1
  S  S6  1  0.09809500  0.29098300  0.08669500  1
  S  S7  1  0.40194400  0.91331900  0.70896400  1
loop_
 _atom_site_moment_label
 _atom_site_moment_crystalaxis_x
 _atom_site_moment_crystalaxis_y
 _atom_site_moment_crystalaxis_z
  Rb0  0.00000640  0.00000760  0.00100466
  Rb1  -0.00000640  -0.00000760  -0.00100466
  Fe2  -0.02417487  -0.02871361  -3.79662391
  Fe3  0.02417487  0.02871361  3.79662391
  S4  0.00003199  0.00003799  0.00502332
  S5  0.00003199  0.00003799  0.00502332
  S6  -0.00003199  -0.00003799  -0.00502332
  S7  -0.00003199  -0.00003799  -0.00502332
