# generated using pymatgen
data_K(NiSe)2
_symmetry_space_group_name_H-M   'P 1'
_cell_length_a   5.81842705
_cell_length_b   7.58542684
_cell_length_c   5.54254468
_cell_angle_alpha   68.68956153
_cell_angle_beta   90.16484689
_cell_angle_gamma   89.00776521
_symmetry_Int_Tables_number   1
_chemical_formula_structural   K(NiSe)2
_chemical_formula_sum   'K2 Ni4 Se4'
_cell_volume   227.85040040
_cell_formula_units_Z   2
loop_
 _symmetry_equiv_pos_site_id
 _symmetry_equiv_pos_as_xyz
  1  'x, y, z'
loop_
 _atom_site_type_symbol
 _atom_site_label
 _atom_site_symmetry_multiplicity
 _atom_site_fract_x
 _atom_site_fract_y
 _atom_site_fract_z
 _atom_site_occupancy
  K  K0  1  0.50001100  0.00032100  0.49936300  1
  K  K1  1  0.00009200  0.00003800  0.99954500  1
  Ni  Ni2  1  0.25054400  0.50010400  0.48645700  1
  Ni  Ni3  1  0.24947700  0.49978800  0.01710000  1
  Ni  Ni4  1  0.75061200  0.50018100  0.98677600  1
  Ni  Ni5  1  0.74936300  0.49985800  0.51677100  1
  Se  Se6  1  0.99373700  0.28517700  0.35628200  1
  Se  Se7  1  0.49394700  0.28567700  0.85595400  1
  Se  Se8  1  0.50601300  0.71460700  0.14077900  1
  Se  Se9  1  0.00620500  0.71424800  0.64097200  1
loop_
 _atom_site_moment_label
 _atom_site_moment_crystalaxis_x
 _atom_site_moment_crystalaxis_y
 _atom_site_moment_crystalaxis_z
  Ni2  -0.38433298  -1.02111432  0.37150289
  Ni3  -0.57780166  -1.53513121  0.55851306
  Ni4  0.38433298  1.02111432  -0.37150289
  Ni5  0.57742961  1.53414272  -0.55815342
  Se6  -0.00037206  -0.00098849  0.00035963
  Se7  0.00037206  0.00098849  -0.00035963
