# generated using pymatgen
data_Sr(CrAs)2
_symmetry_space_group_name_H-M   'P 1'
_cell_length_a   4.21006551
_cell_length_b   12.43808588
_cell_length_c   4.21430406
_cell_angle_alpha   90.00038304
_cell_angle_beta   90.09831018
_cell_angle_gamma   90.00002521
_symmetry_Int_Tables_number   1
_chemical_formula_structural   Sr(CrAs)2
_chemical_formula_sum   'Sr2 Cr4 As4'
_cell_volume   220.68236626
_cell_formula_units_Z   2
loop_
 _symmetry_equiv_pos_site_id
 _symmetry_equiv_pos_as_xyz
  1  'x, y, z'
loop_
 _atom_site_type_symbol
 _atom_site_label
 _atom_site_symmetry_multiplicity
 _atom_site_fract_x
 _atom_site_fract_y
 _atom_site_fract_z
 _atom_site_occupancy
  Sr  Sr0  1  0.00000000  0.00015600  0.99999900  1
  Sr  Sr1  1  0.50000000  0.49984400  0.50000100  1
  Cr  Cr2  1  0.00000000  0.74987400  0.50000100  1
  Cr  Cr3  1  0.00000000  0.25012400  0.50000100  1
  Cr  Cr4  1  0.50000000  0.24987400  0.99999900  1
  Cr  Cr5  1  0.50000000  0.75012700  0.00000000  1
  As  As6  1  0.00000100  0.37544700  0.00000600  1
  As  As7  1  0.50000000  0.87553200  0.50000000  1
  As  As8  1  0.49999900  0.12455000  0.49999400  1
  As  As9  1  0.00000000  0.62447200  0.00000000  1
loop_
 _atom_site_moment_label
 _atom_site_moment_crystalaxis_x
 _atom_site_moment_crystalaxis_y
 _atom_site_moment_crystalaxis_z
  Cr2  1.14459284  -3.41653028  1.14458207
  Cr3  1.14459284  -3.41653028  1.14458207
  Cr4  -1.14610685  3.42104950  -1.14609607
  Cr5  -1.14580405  3.42014566  -1.14579327
