# generated using pymatgen
data_BaVS3
_symmetry_space_group_name_H-M   'P 1'
_cell_length_a   6.75730068
_cell_length_b   8.91980499
_cell_length_c   8.90117302
_cell_angle_alpha   81.52889039
_cell_angle_beta   68.50387852
_cell_angle_gamma   69.27432056
_symmetry_Int_Tables_number   1
_chemical_formula_structural   BaVS3
_chemical_formula_sum   'Ba4 V4 S12'
_cell_volume   466.78875969
_cell_formula_units_Z   4
loop_
 _symmetry_equiv_pos_site_id
 _symmetry_equiv_pos_as_xyz
  1  'x, y, z'
loop_
 _atom_site_type_symbol
 _atom_site_label
 _atom_site_symmetry_multiplicity
 _atom_site_fract_x
 _atom_site_fract_y
 _atom_site_fract_z
 _atom_site_occupancy
  Ba  Ba0  1  0.33835900  0.79324000  0.54539600  1
  Ba  Ba1  1  0.33624300  0.29344900  0.04344600  1
  Ba  Ba2  1  0.66226000  0.20538100  0.45709200  1
  Ba  Ba3  1  0.66232600  0.70582800  0.95694700  1
  V  V4  1  0.97457900  0.49818200  0.47872300  1
  V  V5  1  0.02501600  0.27124000  0.75068100  1
  V  V6  1  0.97817900  0.99843000  0.97844000  1
  V  V7  1  0.02163900  0.77228800  0.25177600  1
  S  S8  1  0.83948400  0.77756300  0.54319900  1
  S  S9  1  0.83850400  0.27867100  0.04099300  1
  S  S10  1  0.16139200  0.21112500  0.46864300  1
  S  S11  1  0.16009200  0.71019600  0.97041400  1
  S  S12  1  0.17137900  0.96530600  0.20973100  1
  S  S13  1  0.17552500  0.46417300  0.70669100  1
  S  S14  1  0.68049100  0.94920200  0.21205200  1
  S  S15  1  0.68129900  0.44658200  0.71434300  1
  S  S16  1  0.83422800  0.03755400  0.78393500  1
  S  S17  1  0.81950000  0.54024100  0.28991400  1
  S  S18  1  0.32269900  0.04119200  0.80022100  1
  S  S19  1  0.31680600  0.54015800  0.29736000  1
loop_
 _atom_site_moment_label
 _atom_site_moment_crystalaxis_x
 _atom_site_moment_crystalaxis_y
 _atom_site_moment_crystalaxis_z
  Ba0  -0.00001070  -0.00065669  -0.00065684
  Ba1  0.00001070  0.00065669  0.00065684
  Ba2  -0.00002140  -0.00131337  -0.00131369
  Ba3  0.00002140  0.00131337  0.00131369
  V4  -0.01269001  -0.77882872  -0.77901702
  V5  -0.01301101  -0.79852928  -0.79872234
  V6  0.01271141  0.78014209  0.78033070
  V7  0.01303241  0.79984265  0.80003602
  S8  0.00007490  0.00459680  0.00459791
  S9  -0.00005350  -0.00328343  -0.00328422
  S10  0.00039589  0.02429735  0.02430323
  S11  -0.00039589  -0.02429735  -0.02430323
  S12  -0.00104858  -0.06435516  -0.06437071
  S13  0.00103788  0.06369847  0.06371387
  S14  -0.00049219  -0.03020752  -0.03021483
  S15  0.00048149  0.02955084  0.02955798
  S16  -0.00079179  -0.04859471  -0.04860646
  S17  0.00078109  0.04793802  0.04794961
  S18  -0.00009630  -0.00591017  -0.00591160
  S19  0.00007490  0.00459680  0.00459791
