# generated using pymatgen
data_Cs2Mn3Te4
_symmetry_space_group_name_H-M   'P 1'
_cell_length_a   6.70576348
_cell_length_b   10.84232446
_cell_length_c   10.84232763
_cell_angle_alpha   74.63990534
_cell_angle_beta   108.00871843
_cell_angle_gamma   108.00869223
_symmetry_Int_Tables_number   1
_chemical_formula_structural   Cs2Mn3Te4
_chemical_formula_sum   'Cs4 Mn6 Te8'
_cell_volume   700.35306934
_cell_formula_units_Z   2
loop_
 _symmetry_equiv_pos_site_id
 _symmetry_equiv_pos_as_xyz
  1  'x, y, z'
loop_
 _atom_site_type_symbol
 _atom_site_label
 _atom_site_symmetry_multiplicity
 _atom_site_fract_x
 _atom_site_fract_y
 _atom_site_fract_z
 _atom_site_occupancy
  Cs  Cs0  1  0.23588200  0.12334200  0.87667600  1
  Cs  Cs1  1  0.73588200  0.37667700  0.62334200  1
  Cs  Cs2  1  0.26411800  0.62332400  0.37665800  1
  Cs  Cs3  1  0.76411700  0.87665800  0.12332300  1
  Mn  Mn4  1  0.75000000  0.24999900  0.25000100  1
  Mn  Mn5  1  0.25000000  0.48730300  0.01269700  1
  Mn  Mn6  1  0.25000000  0.01268600  0.48731400  1
  Mn  Mn7  1  0.25000000  0.75000100  0.74999900  1
  Mn  Mn8  1  0.75000000  0.51269800  0.98730200  1
  Mn  Mn9  1  0.75000000  0.98731400  0.51268600  1
  Te  Te10  1  0.08121700  0.22174000  0.48325600  1
  Te  Te11  1  0.87623400  0.27825900  0.01673700  1
  Te  Te12  1  0.41878300  0.01674400  0.27826000  1
  Te  Te13  1  0.62376600  0.48326300  0.22174100  1
  Te  Te14  1  0.91878300  0.77825900  0.51674500  1
  Te  Te15  1  0.12376600  0.72174200  0.98326300  1
  Te  Te16  1  0.58121700  0.98325500  0.72174100  1
  Te  Te17  1  0.37623400  0.51673700  0.77825800  1
loop_
 _atom_site_moment_label
 _atom_site_moment_crystalaxis_x
 _atom_site_moment_crystalaxis_y
 _atom_site_moment_crystalaxis_z
  Mn4  -2.83550715  0.03338840  -4.59018478
  Mn5  -2.82190760  0.03322826  -4.56816950
  Mn6  -2.82190760  0.03322826  -4.56816950
  Mn7  2.83550715  -0.03338840  4.59018478
  Mn8  2.82190760  -0.03322826  4.56816950
  Mn9  2.82190760  -0.03322826  4.56816950
  Te10  0.00618162  -0.00007279  0.01000694
  Te11  0.00618162  -0.00007279  0.01000694
  Te12  0.00618162  -0.00007279  0.01000694
  Te13  0.00618162  -0.00007279  0.01000694
  Te14  -0.00618162  0.00007279  -0.01000694
  Te15  -0.00618162  0.00007279  -0.01000694
  Te16  -0.00618162  0.00007279  -0.01000694
  Te17  -0.00618162  0.00007279  -0.01000694
