# generated using pymatgen
data_NiAs
_symmetry_space_group_name_H-M   'P 1'
_cell_length_a   3.70550254
_cell_length_b   6.40937467
_cell_length_c   5.09093023
_cell_angle_alpha   90.00678936
_cell_angle_beta   89.96844125
_cell_angle_gamma   89.94689868
_symmetry_Int_Tables_number   1
_chemical_formula_structural   NiAs
_chemical_formula_sum   'Ni4 As4'
_cell_volume   120.90928818
_cell_formula_units_Z   4
loop_
 _symmetry_equiv_pos_site_id
 _symmetry_equiv_pos_as_xyz
  1  'x, y, z'
loop_
 _atom_site_type_symbol
 _atom_site_label
 _atom_site_symmetry_multiplicity
 _atom_site_fract_x
 _atom_site_fract_y
 _atom_site_fract_z
 _atom_site_occupancy
  Ni  Ni0  1  0.50025500  0.50013400  0.50011700  1
  Ni  Ni1  1  0.99997100  0.00001300  0.99985900  1
  Ni  Ni2  1  0.99937900  0.99997600  0.49974500  1
  Ni  Ni3  1  0.50040900  0.49989900  0.00034500  1
  As  As4  1  0.99050500  0.33819300  0.25049700  1
  As  As5  1  0.50984600  0.83813000  0.25044600  1
  As  As6  1  0.48954600  0.16182700  0.74924000  1
  As  As7  1  0.01008800  0.66182800  0.74975000  1
loop_
 _atom_site_moment_label
 _atom_site_moment_crystalaxis_x
 _atom_site_moment_crystalaxis_y
 _atom_site_moment_crystalaxis_z
  Ni0  0.00026420  -0.00007168  -0.91300011
  Ni1  0.00025725  -0.00006980  -0.88900011
  Ni2  -0.00027809  0.00007545  0.96100012
  Ni3  -0.00028330  0.00007686  0.97900012
  As4  -0.00000174  0.00000047  0.00600000
  As5  0.00000087  -0.00000024  -0.00300000
  As6  0.00000087  -0.00000024  -0.00300000
  As7  -0.00000174  0.00000047  0.00600000
