# generated using pymatgen
data_VSe
_symmetry_space_group_name_H-M   'P 1'
_cell_length_a   3.76254204
_cell_length_b   7.91393271
_cell_length_c   6.38997328
_cell_angle_alpha   65.85074278
_cell_angle_beta   90.00594879
_cell_angle_gamma   76.26544399
_symmetry_Int_Tables_number   1
_chemical_formula_structural   VSe
_chemical_formula_sum   'V4 Se4'
_cell_volume   167.63674701
_cell_formula_units_Z   4
loop_
 _symmetry_equiv_pos_site_id
 _symmetry_equiv_pos_as_xyz
  1  'x, y, z'
loop_
 _atom_site_type_symbol
 _atom_site_label
 _atom_site_symmetry_multiplicity
 _atom_site_fract_x
 _atom_site_fract_y
 _atom_site_fract_z
 _atom_site_occupancy
  V  V0  1  0.37276300  0.25451300  0.03802600  1
  V  V1  1  0.62723700  0.74548900  0.96196500  1
  V  V2  1  0.87272700  0.25459800  0.53795400  1
  V  V3  1  0.12727100  0.74539700  0.46205100  1
  Se  Se4  1  0.50002700  0.00000400  0.49999800  1
  Se  Se5  1  0.99997800  0.99999800  0.00000500  1
  Se  Se6  1  0.25000000  0.50000600  0.24998500  1
  Se  Se7  1  0.74999500  0.49999400  0.75001400  1
loop_
 _atom_site_moment_label
 _atom_site_moment_crystalaxis_x
 _atom_site_moment_crystalaxis_y
 _atom_site_moment_crystalaxis_z
  V0  0.72998568  -3.07248515  1.24888273
  V1  0.72998568  -3.07248515  1.24888273
  V2  -0.72998568  3.07248515  -1.24888273
  V3  -0.72998568  3.07248515  -1.24888273
  Se4  0.00539332  -0.02270030  0.00922706
  Se5  -0.00539332  0.02270030  -0.00922706
