# generated using pymatgen
data_Ba(MnSb)2
_symmetry_space_group_name_H-M   'P 1'
_cell_length_a   4.54706602
_cell_length_b   7.99531437
_cell_length_c   4.54677685
_cell_angle_alpha   73.43652613
_cell_angle_beta   90.04684356
_cell_angle_gamma   106.56994798
_symmetry_Int_Tables_number   1
_chemical_formula_structural   Ba(MnSb)2
_chemical_formula_sum   'Ba1 Mn2 Sb2'
_cell_volume   151.27641469
_cell_formula_units_Z   1
loop_
 _symmetry_equiv_pos_site_id
 _symmetry_equiv_pos_as_xyz
  1  'x, y, z'
loop_
 _atom_site_type_symbol
 _atom_site_label
 _atom_site_symmetry_multiplicity
 _atom_site_fract_x
 _atom_site_fract_y
 _atom_site_fract_z
 _atom_site_occupancy
  Ba  Ba0  1  0.00000000  0.00000000  0.00000000  1
  Mn  Mn1  1  0.25007300  0.50004700  0.25003300  1
  Mn  Mn2  1  0.74992700  0.49995300  0.74996700  1
  Sb  Sb3  1  0.63043700  0.26142100  0.36951600  1
  Sb  Sb4  1  0.36956300  0.73857900  0.63048400  1
loop_
 _atom_site_moment_label
 _atom_site_moment_crystalaxis_x
 _atom_site_moment_crystalaxis_y
 _atom_site_moment_crystalaxis_z
  Mn1  0.15868769  -4.43124118  2.68097607
  Mn2  -0.15868769  4.43124118  -2.68097607
