# generated using pymatgen
data_CaMnBi2
_symmetry_space_group_name_H-M   'P 1'
_cell_length_a   4.56602281
_cell_length_b   4.57710099
_cell_length_c   22.75939800
_cell_angle_alpha   90.00095586
_cell_angle_beta   89.99945838
_cell_angle_gamma   90.00424625
_symmetry_Int_Tables_number   1
_chemical_formula_structural   CaMnBi2
_chemical_formula_sum   'Ca4 Mn4 Bi8'
_cell_volume   475.65201469
_cell_formula_units_Z   4
loop_
 _symmetry_equiv_pos_site_id
 _symmetry_equiv_pos_as_xyz
  1  'x, y, z'
loop_
 _atom_site_type_symbol
 _atom_site_label
 _atom_site_symmetry_multiplicity
 _atom_site_fract_x
 _atom_site_fract_y
 _atom_site_fract_z
 _atom_site_occupancy
  Ca  Ca0  1  0.75000300  0.24999600  0.36323000  1
  Ca  Ca1  1  0.74999700  0.25000300  0.86322600  1
  Ca  Ca2  1  0.24999400  0.75000000  0.13677000  1
  Ca  Ca3  1  0.24999900  0.75000000  0.63677400  1
  Mn  Mn4  1  0.24999700  0.25000100  0.99979100  1
  Mn  Mn5  1  0.75000200  0.75000200  0.50020600  1
  Mn  Mn6  1  0.25000600  0.24999900  0.50001200  1
  Mn  Mn7  1  0.74999600  0.75000100  0.99999100  1
  Bi  Bi8  1  0.25006500  0.25030100  0.24475800  1
  Bi  Bi9  1  0.24990900  0.24988900  0.74476900  1
  Bi  Bi10  1  0.74994600  0.74969000  0.25524000  1
  Bi  Bi11  1  0.75009000  0.75011500  0.75523100  1
  Bi  Bi12  1  0.74999700  0.25000100  0.08423000  1
  Bi  Bi13  1  0.74999800  0.25000300  0.58427400  1
  Bi  Bi14  1  0.25000200  0.74999900  0.41577000  1
  Bi  Bi15  1  0.25000000  0.75000100  0.91572600  1
loop_
 _atom_site_moment_label
 _atom_site_moment_crystalaxis_x
 _atom_site_moment_crystalaxis_y
 _atom_site_moment_crystalaxis_z
  Ca1  0.00000000  0.00000000  -0.00100000
  Ca3  0.00000000  0.00000000  -0.00100000
  Mn4  0.00002112  -0.00003819  -4.55700000
  Mn5  0.00002112  -0.00003819  -4.55700000
  Mn6  -0.00002112  0.00003819  4.55700000
  Mn7  -0.00002112  0.00003819  4.55700000
  Bi8  0.00000004  -0.00000008  -0.00900000
  Bi9  -0.00000004  0.00000008  0.00900000
  Bi10  0.00000004  -0.00000008  -0.00900000
  Bi11  -0.00000004  0.00000008  0.00900000
  Bi12  0.00000000  0.00000002  0.00200000
  Bi13  0.00000000  -0.00000002  -0.00200000
  Bi14  0.00000000  0.00000002  0.00200000
  Bi15  0.00000000  -0.00000002  -0.00200000
