# generated using pymatgen
data_RbCr3S5
_symmetry_space_group_name_H-M   'P 1'
_cell_length_a   3.58462412
_cell_length_b   10.01189722
_cell_length_c   10.99403051
_cell_angle_alpha   72.02007990
_cell_angle_beta   80.61196879
_cell_angle_gamma   79.68169333
_symmetry_Int_Tables_number   1
_chemical_formula_structural   RbCr3S5
_chemical_formula_sum   'Rb2 Cr6 S10'
_cell_volume   366.76616368
_cell_formula_units_Z   2
loop_
 _symmetry_equiv_pos_site_id
 _symmetry_equiv_pos_as_xyz
  1  'x, y, z'
loop_
 _atom_site_type_symbol
 _atom_site_label
 _atom_site_symmetry_multiplicity
 _atom_site_fract_x
 _atom_site_fract_y
 _atom_site_fract_z
 _atom_site_occupancy
  Rb  Rb0  1  0.74577000  0.34145800  0.16701900  1
  Rb  Rb1  1  0.25423100  0.65854300  0.83297900  1
  Cr  Cr2  1  0.49995700  0.00002400  0.99999900  1
  Cr  Cr3  1  0.49998800  0.49999800  0.49999500  1
  Cr  Cr4  1  0.16426300  0.06037200  0.61112400  1
  Cr  Cr5  1  0.83574300  0.93962400  0.38887300  1
  Cr  Cr6  1  0.01529700  0.73859700  0.23090200  1
  Cr  Cr7  1  0.98471400  0.26138900  0.76910100  1
  S  S8  1  0.59161500  0.73506700  0.08182500  1
  S  S9  1  0.40839000  0.26493600  0.91817600  1
  S  S10  1  0.57495000  0.24234100  0.60765800  1
  S  S11  1  0.42505400  0.75765300  0.39234500  1
  S  S12  1  0.92582700  0.99763400  0.15066600  1
  S  S13  1  0.07419700  0.00236600  0.84933200  1
  S  S14  1  0.07999900  0.49173300  0.34824300  1
  S  S15  1  0.92000100  0.50826700  0.65176400  1
  S  S16  1  0.74347200  0.89679200  0.61632700  1
  S  S17  1  0.25653200  0.10320600  0.38367000  1
loop_
 _atom_site_moment_label
 _atom_site_moment_crystalaxis_x
 _atom_site_moment_crystalaxis_y
 _atom_site_moment_crystalaxis_z
  Cr2  -0.00323285  0.00836494  3.11993457
  Cr3  -0.00324528  0.00839709  3.13192663
  Cr4  0.00322974  -0.00835690  -3.11693655
  Cr5  0.00322974  -0.00835690  -3.11693655
  Cr6  -0.00322974  0.00835690  3.11693655
  Cr7  -0.00322974  0.00835690  3.11693655
  S8  0.00015015  -0.00038851  -0.14490407
  S9  0.00015015  -0.00038851  -0.14490407
  S10  0.00004556  -0.00011789  -0.04397089
  S11  0.00004556  -0.00011789  -0.04397089
  S12  0.00007663  -0.00019827  -0.07395104
  S13  0.00007663  -0.00019827  -0.07395104
  S14  0.00011598  -0.00030009  -0.11192590
  S15  0.00011598  -0.00030009  -0.11192590
  S16  -0.00016361  0.00042334  0.15789547
  S17  -0.00016361  0.00042334  0.15789547
