# generated using pymatgen
data_LiMn9Se10
_symmetry_space_group_name_H-M   'P 1'
_cell_length_a   7.80086650
_cell_length_b   11.74947135
_cell_length_c   10.35957729
_cell_angle_alpha   75.31918490
_cell_angle_beta   112.30485214
_cell_angle_gamma   89.97555208
_symmetry_Int_Tables_number   1
_chemical_formula_structural   LiMn9Se10
_chemical_formula_sum   'Li2 Mn18 Se20'
_cell_volume   844.82693203
_cell_formula_units_Z   2
loop_
 _symmetry_equiv_pos_site_id
 _symmetry_equiv_pos_as_xyz
  1  'x, y, z'
loop_
 _atom_site_type_symbol
 _atom_site_label
 _atom_site_symmetry_multiplicity
 _atom_site_fract_x
 _atom_site_fract_y
 _atom_site_fract_z
 _atom_site_occupancy
  Li  Li0  1  0.49999900  0.99999900  0.00000200  1
  Li  Li1  1  0.50000000  0.49999900  0.50000200  1
  Mn  Mn2  1  0.00003300  0.49997300  0.50002800  1
  Mn  Mn3  1  0.99998000  0.00000500  0.99996000  1
  Mn  Mn4  1  0.59884000  0.89897800  0.70100200  1
  Mn  Mn5  1  0.59915400  0.39906900  0.20117000  1
  Mn  Mn6  1  0.40116700  0.10102600  0.29900900  1
  Mn  Mn7  1  0.40083900  0.60088000  0.79882100  1
  Mn  Mn8  1  0.19948400  0.79952500  0.39659300  1
  Mn  Mn9  1  0.19950000  0.30052000  0.89589600  1
  Mn  Mn10  1  0.80055100  0.20046500  0.60336200  1
  Mn  Mn11  1  0.80043200  0.69951900  0.10409200  1
  Mn  Mn12  1  0.69752400  0.79894800  0.39766200  1
  Mn  Mn13  1  0.69707300  0.29974300  0.89719800  1
  Mn  Mn14  1  0.30248400  0.20105300  0.60236100  1
  Mn  Mn15  1  0.30296100  0.70027800  0.10273600  1
  Mn  Mn16  1  0.89694100  0.09938200  0.29753200  1
  Mn  Mn17  1  0.89711400  0.59896800  0.79739900  1
  Mn  Mn18  1  0.10306900  0.90064800  0.70250500  1
  Mn  Mn19  1  0.10287300  0.40102900  0.20262500  1
  Se  Se20  1  0.65146300  0.10006500  0.79826000  1
  Se  Se21  1  0.65097100  0.60022400  0.29816300  1
  Se  Se22  1  0.34853400  0.89993200  0.20174700  1
  Se  Se23  1  0.34902700  0.39977500  0.70184500  1
  Se  Se24  1  0.24893500  0.00112600  0.50025200  1
  Se  Se25  1  0.24883700  0.50090700  0.00006700  1
  Se  Se26  1  0.75106500  0.99887500  0.49975000  1
  Se  Se27  1  0.75116500  0.49909200  0.99993900  1
  Se  Se28  1  0.14648500  0.10013600  0.79797200  1
  Se  Se29  1  0.14661300  0.59990400  0.29777700  1
  Se  Se30  1  0.85351300  0.89986400  0.20203200  1
  Se  Se31  1  0.85337800  0.40009700  0.70222500  1
  Se  Se32  1  0.44898100  0.29720600  0.39952200  1
  Se  Se33  1  0.44888700  0.79694100  0.89892600  1
  Se  Se34  1  0.55102000  0.70279400  0.60048300  1
  Se  Se35  1  0.55110700  0.20306100  0.10107300  1
  Se  Se36  1  0.04917700  0.70079000  0.59979900  1
  Se  Se37  1  0.04942600  0.20027900  0.10000900  1
  Se  Se38  1  0.95082400  0.29920500  0.40020900  1
  Se  Se39  1  0.95057300  0.79972000  0.89999600  1
loop_
 _atom_site_moment_label
 _atom_site_moment_crystalaxis_x
 _atom_site_moment_crystalaxis_y
 _atom_site_moment_crystalaxis_z
  Li0  -0.00000302  0.00334973  0.00295806
  Li1  -0.00000302  0.00334973  0.00295806
  Mn2  0.00274705  -3.05026268  -2.69361227
  Mn3  -0.00277903  3.08576980  2.72496774
  Mn4  -0.00278325  3.09045942  2.72910903
  Mn5  -0.00277661  3.08309002  2.72260129
  Mn6  -0.00278325  3.09045942  2.72910903
  Mn7  -0.00277661  3.08309002  2.72260129
  Mn8  -0.00277541  3.08175013  2.72141807
  Mn9  -0.00277661  3.08309002  2.72260129
  Mn10  -0.00277541  3.08175013  2.72141807
  Mn11  -0.00277661  3.08309002  2.72260129
  Mn12  -0.00277722  3.08375997  2.72319291
  Mn13  -0.00277842  3.08509986  2.72437613
  Mn14  -0.00277722  3.08375997  2.72319291
  Mn15  -0.00277842  3.08509986  2.72437613
  Mn16  -0.00278023  3.08710970  2.72615097
  Mn17  -0.00277963  3.08643975  2.72555936
  Mn18  -0.00278023  3.08710970  2.72615097
  Mn19  -0.00277963  3.08643975  2.72555936
  Se20  0.00000724  -0.00803935  -0.00709935
  Se21  0.00000483  -0.00535957  -0.00473290
  Se22  0.00000724  -0.00803935  -0.00709935
  Se23  0.00000483  -0.00535957  -0.00473290
  Se24  0.00000060  -0.00066995  -0.00059161
  Se25  0.00000181  -0.00200984  -0.00177484
  Se26  0.00000060  -0.00066995  -0.00059161
  Se27  0.00000181  -0.00200984  -0.00177484
  Se28  0.00000664  -0.00736940  -0.00650774
  Se29  0.00000483  -0.00535957  -0.00473290
  Se30  0.00000664  -0.00736940  -0.00650774
  Se31  0.00000483  -0.00535957  -0.00473290
  Se32  0.00000784  -0.00870929  -0.00769096
  Se33  0.00000845  -0.00937924  -0.00828258
  Se34  0.00000784  -0.00870929  -0.00769096
  Se35  0.00000845  -0.00937924  -0.00828258
  Se36  0.00000603  -0.00669946  -0.00591613
  Se37  0.00000121  -0.00133989  -0.00118323
  Se38  0.00000603  -0.00669946  -0.00591613
  Se39  0.00000121  -0.00133989  -0.00118323
