# generated using pymatgen
data_SrMn2Si
_symmetry_space_group_name_H-M   'P 1'
_cell_length_a   5.10531056
_cell_length_b   5.10492987
_cell_length_c   5.10475862
_cell_angle_alpha   119.99784219
_cell_angle_beta   90.00006543
_cell_angle_gamma   120.00263421
_symmetry_Int_Tables_number   1
_chemical_formula_structural   SrMn2Si
_chemical_formula_sum   'Sr1 Mn2 Si1'
_cell_volume   94.07382092
_cell_formula_units_Z   1
loop_
 _symmetry_equiv_pos_site_id
 _symmetry_equiv_pos_as_xyz
  1  'x, y, z'
loop_
 _atom_site_type_symbol
 _atom_site_label
 _atom_site_symmetry_multiplicity
 _atom_site_fract_x
 _atom_site_fract_y
 _atom_site_fract_z
 _atom_site_occupancy
  Sr  Sr0  1  0.74999700  0.49999400  0.25000300  1
  Mn  Mn1  1  0.25001200  0.50002300  0.75000700  1
  Mn  Mn2  1  0.99999600  0.99999300  0.99999400  1
  Si  Si3  1  0.49999500  0.99999000  0.49999500  1
loop_
 _atom_site_moment_label
 _atom_site_moment_crystalaxis_x
 _atom_site_moment_crystalaxis_y
 _atom_site_moment_crystalaxis_z
  Sr0  0.00700028  0.00700001  0.00699984
  Mn1  -4.60518401  -4.60500754  -4.60489283
  Mn2  4.60718409  4.60700754  4.60689279
  Si3  0.03300132  0.03300005  0.03299923
