# generated using pymatgen
data_CrSe
_symmetry_space_group_name_H-M   'P 1'
_cell_length_a   4.85226227
_cell_length_b   4.82413498
_cell_length_c   10.07769007
_cell_angle_alpha   90.00577470
_cell_angle_beta   90.02184905
_cell_angle_gamma   89.31317024
_symmetry_Int_Tables_number   1
_chemical_formula_structural   CrSe
_chemical_formula_sum   'Cr4 Se4'
_cell_volume   235.88128098
_cell_formula_units_Z   4
loop_
 _symmetry_equiv_pos_site_id
 _symmetry_equiv_pos_as_xyz
  1  'x, y, z'
loop_
 _atom_site_type_symbol
 _atom_site_label
 _atom_site_symmetry_multiplicity
 _atom_site_fract_x
 _atom_site_fract_y
 _atom_site_fract_z
 _atom_site_occupancy
  Cr  Cr0  1  0.00015700  0.99996700  0.50008700  1
  Cr  Cr1  1  0.49989100  0.50000600  0.49990400  1
  Cr  Cr2  1  0.00008000  0.99996400  0.00009300  1
  Cr  Cr3  1  0.49989900  0.50006100  0.99991000  1
  Se  Se4  1  0.99975300  0.49999300  0.08764800  1
  Se  Se5  1  0.99977900  0.50000300  0.58768500  1
  Se  Se6  1  0.50024000  0.99998200  0.41231100  1
  Se  Se7  1  0.50020100  0.00002300  0.91236200  1
loop_
 _atom_site_moment_label
 _atom_site_moment_crystalaxis_x
 _atom_site_moment_crystalaxis_y
 _atom_site_moment_crystalaxis_z
  Cr0  0.00017266  -0.00041271  -3.84499995
  Cr1  0.00017266  -0.00041271  -3.84499995
  Cr2  -0.00017266  0.00041271  3.84499995
  Cr3  -0.00017266  0.00041271  3.84499995
  Se4  0.00000647  -0.00001546  -0.14400000
  Se5  -0.00000647  0.00001546  0.14400000
  Se6  -0.00000647  0.00001546  0.14400000
  Se7  0.00000647  -0.00001546  -0.14400000
