# generated using pymatgen
data_Ga3Fe
_symmetry_space_group_name_H-M   'P 1'
_cell_length_a   6.42418985
_cell_length_b   6.45109138
_cell_length_c   7.11674730
_cell_angle_alpha   89.59275333
_cell_angle_beta   90.77753631
_cell_angle_gamma   89.77071712
_symmetry_Int_Tables_number   1
_chemical_formula_structural   Ga3Fe
_chemical_formula_sum   'Ga12 Fe4'
_cell_volume   294.90252887
_cell_formula_units_Z   4
loop_
 _symmetry_equiv_pos_site_id
 _symmetry_equiv_pos_as_xyz
  1  'x, y, z'
loop_
 _atom_site_type_symbol
 _atom_site_label
 _atom_site_symmetry_multiplicity
 _atom_site_fract_x
 _atom_site_fract_y
 _atom_site_fract_z
 _atom_site_occupancy
  Ga  Ga0  1  0.83994500  0.16267300  0.75089800  1
  Ga  Ga1  1  0.65913000  0.66502200  0.74902000  1
  Ga  Ga2  1  0.16019000  0.83747100  0.24872100  1
  Ga  Ga3  1  0.16481200  0.83675900  0.75307600  1
  Ga  Ga4  1  0.99955300  0.49981400  0.00080400  1
  Ga  Ga5  1  0.34023900  0.33481000  0.25098300  1
  Ga  Ga6  1  0.50086100  0.99964000  0.50038000  1
  Ga  Ga7  1  0.66580500  0.66017300  0.25198400  1
  Ga  Ga8  1  0.83622800  0.16245400  0.24744400  1
  Ga  Ga9  1  0.33358900  0.33958000  0.74685700  1
  Ga  Ga10  1  0.99958600  0.50110400  0.50038700  1
  Ga  Ga11  1  0.50035600  0.00072000  0.00083900  1
  Fe  Fe12  1  0.36507100  0.63774900  0.51189300  1
  Fe  Fe13  1  0.63481000  0.36221300  0.48740500  1
  Fe  Fe14  1  0.86571100  0.86248000  0.00493400  1
  Fe  Fe15  1  0.13411400  0.13733600  0.99437500  1
loop_
 _atom_site_moment_label
 _atom_site_moment_crystalaxis_x
 _atom_site_moment_crystalaxis_y
 _atom_site_moment_crystalaxis_z
  Ga0  -0.00043865  0.00023429  -0.06600575
  Ga1  -0.00045194  0.00024139  -0.06800593
  Ga2  -0.00043865  0.00023429  -0.06600575
  Ga3  -0.00039877  0.00021299  -0.06000523
  Ga4  -0.00032566  0.00017394  -0.04900427
  Ga5  -0.00045194  0.00024139  -0.06800593
  Ga6  -0.00028578  0.00015264  -0.04300375
  Ga7  -0.00041871  0.00022364  -0.06300549
  Ga8  -0.00039212  0.00020944  -0.05900514
  Ga9  -0.00042535  0.00022719  -0.06400558
  Ga10  -0.00025255  0.00013489  -0.03800331
  Ga11  -0.00029908  0.00015974  -0.04500392
  Fe12  0.01902791  -0.01016314  2.86324947
  Fe13  0.01904785  -0.01017379  2.86624973
  Fe14  0.01898139  -0.01013829  2.85624886
  Fe15  0.01897474  -0.01013474  2.85524877
