# generated using pymatgen
data_Ba(FeS2)2
_symmetry_space_group_name_H-M   'P 1'
_cell_length_a   5.84281425
_cell_length_b   6.31014416
_cell_length_c   6.31025659
_cell_angle_alpha   77.65996645
_cell_angle_beta   117.53457988
_cell_angle_gamma   117.55455936
_symmetry_Int_Tables_number   1
_chemical_formula_structural   Ba(FeS2)2
_chemical_formula_sum   'Ba1 Fe2 S4'
_cell_volume   182.90018410
_cell_formula_units_Z   1
loop_
 _symmetry_equiv_pos_site_id
 _symmetry_equiv_pos_as_xyz
  1  'x, y, z'
loop_
 _atom_site_type_symbol
 _atom_site_label
 _atom_site_symmetry_multiplicity
 _atom_site_fract_x
 _atom_site_fract_y
 _atom_site_fract_z
 _atom_site_occupancy
  Ba  Ba0  1  0.22029100  0.00002800  0.99995200  1
  Fe  Fe1  1  0.72912900  0.49997700  0.50004100  1
  Fe  Fe2  1  0.22917200  0.50009200  0.49996500  1
  S  S3  1  0.63568300  0.81571900  0.49839300  1
  S  S4  1  0.13711500  0.50163100  0.81558800  1
  S  S5  1  0.82030200  0.49818800  0.18440500  1
  S  S6  1  0.32185600  0.18436600  0.50165600  1
loop_
 _atom_site_moment_label
 _atom_site_moment_crystalaxis_x
 _atom_site_moment_crystalaxis_y
 _atom_site_moment_crystalaxis_z
  Fe1  -3.39372116  0.00003985  -3.88263509
  Fe2  3.39372116  -0.00003985  3.88263509
  S3  0.00089403  -0.00000001  0.00102282
  S4  -0.00089403  0.00000001  -0.00102282
  S6  0.00089403  -0.00000001  0.00102282
