# generated using pymatgen
data_Ca(MnP)2
_symmetry_space_group_name_H-M   'P 1'
_cell_length_a   4.20776000
_cell_length_b   4.20763223
_cell_length_c   6.89043800
_cell_angle_alpha   89.99926325
_cell_angle_beta   90.00066169
_cell_angle_gamma   119.99919386
_symmetry_Int_Tables_number   1
_chemical_formula_structural   Ca(MnP)2
_chemical_formula_sum   'Ca1 Mn2 P2'
_cell_volume   105.65005378
_cell_formula_units_Z   1
loop_
 _symmetry_equiv_pos_site_id
 _symmetry_equiv_pos_as_xyz
  1  'x, y, z'
loop_
 _atom_site_type_symbol
 _atom_site_label
 _atom_site_symmetry_multiplicity
 _atom_site_fract_x
 _atom_site_fract_y
 _atom_site_fract_z
 _atom_site_occupancy
  Ca  Ca0  1  0.00000100  0.00000000  0.00000000  1
  Mn  Mn1  1  0.33333900  0.66667600  0.62826600  1
  Mn  Mn2  1  0.66666100  0.33332400  0.37173400  1
  P  P3  1  0.33333400  0.66666600  0.25323400  1
  P  P4  1  0.66666600  0.33333300  0.74676700  1
loop_
 _atom_site_moment_label
 _atom_site_moment_crystalaxis_x
 _atom_site_moment_crystalaxis_y
 _atom_site_moment_crystalaxis_z
  Mn1  -0.00001356  0.00002104  -4.48500000
  Mn2  0.00001356  -0.00002104  4.48500000
  P3  -0.00000005  0.00000007  -0.01500000
  P4  0.00000005  -0.00000007  0.01500000
