# generated using pymatgen
data_VSe
_symmetry_space_group_name_H-M   'P 1'
_cell_length_a   3.91621904
_cell_length_b   6.57075467
_cell_length_c   10.95428188
_cell_angle_alpha   35.64157325
_cell_angle_beta   90.00186077
_cell_angle_gamma   90.00427854
_symmetry_Int_Tables_number   1
_chemical_formula_structural   VSe
_chemical_formula_sum   'V4 Se4'
_cell_volume   164.25579124
_cell_formula_units_Z   4
loop_
 _symmetry_equiv_pos_site_id
 _symmetry_equiv_pos_as_xyz
  1  'x, y, z'
loop_
 _atom_site_type_symbol
 _atom_site_label
 _atom_site_symmetry_multiplicity
 _atom_site_fract_x
 _atom_site_fract_y
 _atom_site_fract_z
 _atom_site_occupancy
  V  V0  1  0.50000600  0.25430200  0.12388900  1
  V  V1  1  0.00002600  0.74565300  0.62612900  1
  V  V2  1  0.49996700  0.25428900  0.62389700  1
  V  V3  1  0.00000900  0.74564800  0.12613100  1
  Se  Se4  1  0.00000800  0.75366400  0.87247200  1
  Se  Se5  1  0.00001100  0.75364700  0.37247500  1
  Se  Se6  1  0.49998700  0.24640600  0.37750100  1
  Se  Se7  1  0.49998700  0.24639000  0.87750600  1
loop_
 _atom_site_moment_label
 _atom_site_moment_crystalaxis_x
 _atom_site_moment_crystalaxis_y
 _atom_site_moment_crystalaxis_z
  V0  -0.00041151  -4.71529054  3.87523220
  V1  -0.00041151  -4.71529054  3.87523220
  V2  0.00041151  4.71529054  -3.87523220
  V3  0.00041151  4.71529054  -3.87523220
