# generated using pymatgen
data_K3(VS2)5
_symmetry_space_group_name_H-M   'P 1'
_cell_length_a   6.18555263
_cell_length_b   8.67053433
_cell_length_c   9.37824526
_cell_angle_alpha   108.75756695
_cell_angle_beta   107.78709671
_cell_angle_gamma   104.48269678
_symmetry_Int_Tables_number   1
_chemical_formula_structural   K3(VS2)5
_chemical_formula_sum   'K3 V5 S10'
_cell_volume   418.28634376
_cell_formula_units_Z   1
loop_
 _symmetry_equiv_pos_site_id
 _symmetry_equiv_pos_as_xyz
  1  'x, y, z'
loop_
 _atom_site_type_symbol
 _atom_site_label
 _atom_site_symmetry_multiplicity
 _atom_site_fract_x
 _atom_site_fract_y
 _atom_site_fract_z
 _atom_site_occupancy
  K  K0  1  0.27145400  0.50218500  0.19962400  1
  K  K1  1  0.04270300  0.50220300  0.79915100  1
  K  K2  1  0.86893300  0.50817400  0.40129200  1
  V  V3  1  0.00006100  0.99933600  0.00128600  1
  V  V4  1  0.80513500  0.99961900  0.59956500  1
  V  V5  1  0.60277800  0.99729500  0.19478500  1
  V  V6  1  0.40181400  0.00585300  0.80286700  1
  V  V7  1  0.20224200  0.00314400  0.40669400  1
  S  S8  1  0.17870200  0.82446700  0.13719100  1
  S  S9  1  0.96503900  0.81886200  0.72819500  1
  S  S10  1  0.62669400  0.17542200  0.46426100  1
  S  S11  1  0.77655000  0.81857100  0.31830100  1
  S  S12  1  0.43237600  0.18196700  0.07927700  1
  S  S13  1  0.56309400  0.82048000  0.93108000  1
  S  S14  1  0.23976000  0.18494600  0.66760400  1
  S  S15  1  0.37233400  0.82296800  0.52607900  1
  S  S16  1  0.02961300  0.18148400  0.28097200  1
  S  S17  1  0.83671500  0.18302600  0.87377700  1
loop_
 _atom_site_moment_label
 _atom_site_moment_crystalaxis_x
 _atom_site_moment_crystalaxis_y
 _atom_site_moment_crystalaxis_z
  K1  0.00000674  -0.00000290  -0.00099884
  V3  -0.01334190  0.00574284  1.97770929
  V4  -0.01327452  0.00571383  1.96772086
  V5  -0.00845661  0.00364003  1.25354806
  V6  -0.01328125  0.00571673  1.96871971
  V7  -0.00849030  0.00365453  1.25854228
  S8  0.00049864  -0.00021463  -0.07391439
  S9  0.00052559  -0.00022623  -0.07790976
  S10  0.00053233  -0.00022913  -0.07890860
  S11  0.00049190  -0.00021173  -0.07291554
  S12  0.00051211  -0.00022043  -0.07591207
  S13  0.00069405  -0.00029874  -0.10288084
  S14  0.00070079  -0.00030164  -0.10387968
  S15  0.00049190  -0.00021173  -0.07291554
  S16  0.00049190  -0.00021173  -0.07291554
  S17  0.00051885  -0.00022333  -0.07691092
