# generated using pymatgen
data_Fe13Ge3
_symmetry_space_group_name_H-M   'P 1'
_cell_length_a   8.54814060
_cell_length_b   8.53745873
_cell_length_c   8.56607736
_cell_angle_alpha   60.39835745
_cell_angle_beta   89.40625896
_cell_angle_gamma   119.82365220
_symmetry_Int_Tables_number   1
_chemical_formula_structural   Fe13Ge3
_chemical_formula_sum   'Fe26 Ge6'
_cell_volume   443.57207926
_cell_formula_units_Z   2
loop_
 _symmetry_equiv_pos_site_id
 _symmetry_equiv_pos_as_xyz
  1  'x, y, z'
loop_
 _atom_site_type_symbol
 _atom_site_label
 _atom_site_symmetry_multiplicity
 _atom_site_fract_x
 _atom_site_fract_y
 _atom_site_fract_z
 _atom_site_occupancy
  Fe  Fe0  1  0.49986400  0.00004900  0.49986300  1
  Fe  Fe1  1  0.00012200  0.99991800  0.00011700  1
  Fe  Fe2  1  0.75008100  0.50013500  0.74993400  1
  Fe  Fe3  1  0.24990700  0.49986800  0.25005300  1
  Fe  Fe4  1  0.24991400  0.49980500  0.75005300  1
  Fe  Fe5  1  0.75006900  0.50014900  0.24997200  1
  Fe  Fe6  1  0.25008700  0.99999700  0.75000300  1
  Fe  Fe7  1  0.74992000  0.00002700  0.24995100  1
  Fe  Fe8  1  0.24990400  0.00006000  0.24984900  1
  Fe  Fe9  1  0.75010800  0.99992200  0.75014400  1
  Fe  Fe10  1  0.88058000  0.76124500  0.36870200  1
  Fe  Fe11  1  0.38135700  0.76116300  0.86853800  1
  Fe  Fe12  1  0.13233900  0.75510300  0.62833100  1
  Fe  Fe13  1  0.63223300  0.75567000  0.12778100  1
  Fe  Fe14  1  0.62902900  0.25082500  0.61586200  1
  Fe  Fe15  1  0.12904900  0.25097000  0.11601400  1
  Fe  Fe16  1  0.61938500  0.23888500  0.13129900  1
  Fe  Fe17  1  0.11865200  0.23873300  0.63143700  1
  Fe  Fe18  1  0.87107600  0.74919300  0.88408900  1
  Fe  Fe19  1  0.37086800  0.74901800  0.38409700  1
  Fe  Fe20  1  0.61959600  0.75596400  0.62430700  1
  Fe  Fe21  1  0.11938800  0.75632400  0.12385300  1
  Fe  Fe22  1  0.88046100  0.24427100  0.87560300  1
  Fe  Fe23  1  0.38056500  0.24348300  0.37620700  1
  Fe  Fe24  1  0.36790700  0.24512200  0.87142900  1
  Fe  Fe25  1  0.86752800  0.24412900  0.37242900  1
  Ge  Ge26  1  0.50013900  0.50016900  0.99964100  1
  Ge  Ge27  1  0.99986900  0.49982400  0.50039600  1
  Ge  Ge28  1  0.50018300  0.50036000  0.50026700  1
  Ge  Ge29  1  0.99981700  0.49961400  0.99974600  1
  Ge  Ge30  1  0.50036500  0.00041200  0.00009900  1
  Ge  Ge31  1  0.99963700  0.99959200  0.49993000  1
loop_
 _atom_site_moment_label
 _atom_site_moment_crystalaxis_x
 _atom_site_moment_crystalaxis_y
 _atom_site_moment_crystalaxis_z
  Fe0  2.29355244  0.01027997  2.28325455
  Fe1  2.29496255  0.01028629  2.28465834
  Fe2  2.27663106  0.01020412  2.26640914
  Fe3  2.27522094  0.01019780  2.26500536
  Fe4  2.07004917  0.00927820  2.06075480
  Fe5  2.07286940  0.00929084  2.06356237
  Fe6  2.06299860  0.00924660  2.05373588
  Fe7  2.06158848  0.00924028  2.05233210
  Fe8  2.08062504  0.00932560  2.07128318
  Fe9  2.07639469  0.00930664  2.06707183
  Fe10  2.18708874  0.00980279  2.17726887
  Fe11  2.19484437  0.00983755  2.18498968
  Fe12  2.20330506  0.00987547  2.19341238
  Fe13  2.20542024  0.00988495  2.19551806
  Fe14  2.16170666  0.00968902  2.15200075
  Fe15  2.16170666  0.00968902  2.15200075
  Fe16  2.18779380  0.00980595  2.17797076
  Fe17  2.19343426  0.00983123  2.18358589
  Fe18  2.16311678  0.00969534  2.15340454
  Fe19  2.16029655  0.00968270  2.15059697
  Fe20  2.20965058  0.00990391  2.19972941
  Fe21  2.21388093  0.00992287  2.20394076
  Fe22  2.21035564  0.00990707  2.20043130
  Fe23  2.21388093  0.00992287  2.20394076
  Fe24  2.20189495  0.00986915  2.19200860
  Fe25  2.20683035  0.00989127  2.19692184
  Ge26  -0.08037657  -0.00036026  -0.08001568
  Ge27  -0.08037657  -0.00036026  -0.08001568
  Ge28  -0.08108163  -0.00036342  -0.08071758
  Ge29  -0.08108163  -0.00036342  -0.08071758
  Ge30  -0.07896645  -0.00035394  -0.07861190
  Ge31  -0.07896645  -0.00035394  -0.07861190
