# generated using pymatgen
data_NaCrS2
_symmetry_space_group_name_H-M   'P 1'
_cell_length_a   3.60538600
_cell_length_b   3.60537529
_cell_length_c   6.62468500
_cell_angle_alpha   90.00008922
_cell_angle_beta   89.99965221
_cell_angle_gamma   119.99962138
_symmetry_Int_Tables_number   1
_chemical_formula_structural   NaCrS2
_chemical_formula_sum   'Na1 Cr1 S2'
_cell_volume   74.57611695
_cell_formula_units_Z   1
loop_
 _symmetry_equiv_pos_site_id
 _symmetry_equiv_pos_as_xyz
  1  'x, y, z'
loop_
 _atom_site_type_symbol
 _atom_site_label
 _atom_site_symmetry_multiplicity
 _atom_site_fract_x
 _atom_site_fract_y
 _atom_site_fract_z
 _atom_site_occupancy
  Na  Na0  1  0.00000000  0.00000000  0.50000000  1
  Cr  Cr1  1  0.99999900  0.00000000  0.00000000  1
  S  S2  1  0.66666600  0.33333400  0.19966800  1
  S  S3  1  0.33333500  0.66666700  0.80033100  1
loop_
 _atom_site_moment_label
 _atom_site_moment_crystalaxis_x
 _atom_site_moment_crystalaxis_y
 _atom_site_moment_crystalaxis_z
  Na0  0.00000000  0.00000000  -0.00100000
  Cr1  -0.00001113  -0.00000328  3.14100000
  S2  0.00000041  0.00000012  -0.11700000
  S3  0.00000041  0.00000012  -0.11700000
