# generated using pymatgen
data_Li(Fe3Ge2)2
_symmetry_space_group_name_H-M   'P 1'
_cell_length_a   5.29889753
_cell_length_b   5.29839904
_cell_length_c   7.49889252
_cell_angle_alpha   69.23259329
_cell_angle_beta   69.23140413
_cell_angle_gamma   59.97025306
_symmetry_Int_Tables_number   1
_chemical_formula_structural   Li(Fe3Ge2)2
_chemical_formula_sum   'Li1 Fe6 Ge4'
_cell_volume   166.30153325
_cell_formula_units_Z   1
loop_
 _symmetry_equiv_pos_site_id
 _symmetry_equiv_pos_as_xyz
  1  'x, y, z'
loop_
 _atom_site_type_symbol
 _atom_site_label
 _atom_site_symmetry_multiplicity
 _atom_site_fract_x
 _atom_site_fract_y
 _atom_site_fract_z
 _atom_site_occupancy
  Li  Li0  1  0.99999600  0.99999800  0.00000600  1
  Fe  Fe1  1  0.39727700  0.39729200  0.31571000  1
  Fe  Fe2  1  0.11007100  0.60288200  0.68399800  1
  Fe  Fe3  1  0.60287800  0.11009900  0.68400200  1
  Fe  Fe4  1  0.60272400  0.60271500  0.68428500  1
  Fe  Fe5  1  0.39713000  0.88990200  0.31598900  1
  Fe  Fe6  1  0.88992200  0.39711300  0.31601100  1
  Ge  Ge7  1  0.12478200  0.12473000  0.62704100  1
  Ge  Ge8  1  0.33256900  0.33249700  0.00278500  1
  Ge  Ge9  1  0.66742900  0.66750400  0.99721600  1
  Ge  Ge10  1  0.87522200  0.87527000  0.37295800  1
loop_
 _atom_site_moment_label
 _atom_site_moment_crystalaxis_x
 _atom_site_moment_crystalaxis_y
 _atom_site_moment_crystalaxis_z
  Li0  -0.00000147  -0.00000183  -0.00699883
  Fe1  0.00065183  0.00081471  3.10747977
  Fe2  0.00065204  0.00081497  3.10847961
  Fe3  0.00065225  0.00081523  3.10947944
  Fe4  0.00065183  0.00081471  3.10747977
  Fe5  0.00065246  0.00081549  3.11047927
  Fe6  0.00065204  0.00081497  3.10847961
  Ge7  -0.00003104  -0.00003880  -0.14797523
  Ge8  -0.00001426  -0.00001782  -0.06798862
  Ge9  -0.00001426  -0.00001782  -0.06798862
  Ge10  -0.00003104  -0.00003880  -0.14797523
