# generated using pymatgen
data_Na3(VSe2)5
_symmetry_space_group_name_H-M   'P 1'
_cell_length_a   6.30737847
_cell_length_b   8.56622272
_cell_length_c   9.31362923
_cell_angle_alpha   113.58871130
_cell_angle_beta   96.76892045
_cell_angle_gamma   104.39166811
_symmetry_Int_Tables_number   1
_chemical_formula_structural   Na3(VSe2)5
_chemical_formula_sum   'Na3 V5 Se10'
_cell_volume   433.10489261
_cell_formula_units_Z   1
loop_
 _symmetry_equiv_pos_site_id
 _symmetry_equiv_pos_as_xyz
  1  'x, y, z'
loop_
 _atom_site_type_symbol
 _atom_site_label
 _atom_site_symmetry_multiplicity
 _atom_site_fract_x
 _atom_site_fract_y
 _atom_site_fract_z
 _atom_site_occupancy
  Na  Na0  1  0.66432700  0.49788200  0.99711200  1
  Na  Na1  1  0.43815600  0.09913800  0.59854400  1
  Na  Na2  1  0.26484400  0.70418900  0.20226000  1
  V  V3  1  0.00032700  0.99848400  0.99569300  1
  V  V4  1  0.80098900  0.60150100  0.59898900  1
  V  V5  1  0.60360700  0.20193900  0.20335400  1
  V  V6  1  0.41239700  0.79928700  0.80253800  1
  V  V7  1  0.19347800  0.39851200  0.40040500  1
  Se  Se8  1  0.96176600  0.32395000  0.11719300  1
  Se  Se9  1  0.76464100  0.92375400  0.71514500  1
  Se  Se10  1  0.83763100  0.27889900  0.48645000  1
  Se  Se11  1  0.55601300  0.52196000  0.31560800  1
  Se  Se12  1  0.64780200  0.87774800  0.08609500  1
  Se  Se13  1  0.36589400  0.12125600  0.91821200  1
  Se  Se14  1  0.44111500  0.47555100  0.68188300  1
  Se  Se15  1  0.16307500  0.72307100  0.51890800  1
  Se  Se16  1  0.23773600  0.07623400  0.27968100  1
  Se  Se17  1  0.04624400  0.67682600  0.88180900  1
loop_
 _atom_site_moment_label
 _atom_site_moment_crystalaxis_x
 _atom_site_moment_crystalaxis_y
 _atom_site_moment_crystalaxis_z
  Na0  -0.00000286  -0.00001322  0.00099431
  Na2  -0.00000286  -0.00001322  0.00099431
  V3  -0.00580936  -0.02685509  2.01943412
  V4  -0.00579220  -0.02677575  2.01346829
  V5  -0.00577504  -0.02669642  2.00750246
  V6  -0.00578076  -0.02672286  2.00949107
  V7  -0.00577790  -0.02670964  2.00849676
  Se8  0.00035754  0.00165282  -0.12428817
  Se9  0.00040331  0.00186439  -0.14019705
  Se10  0.00040903  0.00189083  -0.14218566
  Se11  0.00035468  0.00163960  -0.12329386
  Se12  0.00035754  0.00165282  -0.12428817
  Se13  0.00033466  0.00154704  -0.11633372
  Se14  0.00034324  0.00158671  -0.11931664
  Se15  0.00033752  0.00156027  -0.11732803
  Se16  0.00032894  0.00152060  -0.11434511
  Se17  0.00034038  0.00157349  -0.11832233
