# generated using pymatgen
data_Mn5Ge3
_symmetry_space_group_name_H-M   'P 1'
_cell_length_a   7.68654300
_cell_length_b   7.68652826
_cell_length_c   5.81678200
_cell_angle_alpha   89.99893222
_cell_angle_beta   90.00001517
_cell_angle_gamma   120.00023465
_symmetry_Int_Tables_number   1
_chemical_formula_structural   Mn5Ge3
_chemical_formula_sum   'Mn10 Ge6'
_cell_volume   297.62792855
_cell_formula_units_Z   2
loop_
 _symmetry_equiv_pos_site_id
 _symmetry_equiv_pos_as_xyz
  1  'x, y, z'
loop_
 _atom_site_type_symbol
 _atom_site_label
 _atom_site_symmetry_multiplicity
 _atom_site_fract_x
 _atom_site_fract_y
 _atom_site_fract_z
 _atom_site_occupancy
  Mn  Mn0  1  0.23616700  0.23616900  0.74999500  1
  Mn  Mn1  1  0.99999500  0.76383400  0.75000300  1
  Mn  Mn2  1  0.76383000  0.99999600  0.75000500  1
  Mn  Mn3  1  0.23617100  0.00000300  0.24999400  1
  Mn  Mn4  1  0.33333700  0.66666900  0.00000100  1
  Mn  Mn5  1  0.76383300  0.76383200  0.25000400  1
  Mn  Mn6  1  0.66666300  0.33333100  0.99999900  1
  Mn  Mn7  1  0.00000600  0.23616600  0.24999900  1
  Mn  Mn8  1  0.33332900  0.66666400  0.50000100  1
  Mn  Mn9  1  0.66667000  0.33333600  0.49999900  1
  Ge  Ge10  1  0.60243300  0.00000100  0.25000900  1
  Ge  Ge11  1  0.60242400  0.60242600  0.75000200  1
  Ge  Ge12  1  0.00000200  0.60243100  0.25000500  1
  Ge  Ge13  1  0.99999900  0.39756900  0.74999500  1
  Ge  Ge14  1  0.39757500  0.39757500  0.24999800  1
  Ge  Ge15  1  0.39756700  0.99999800  0.74999100  1
loop_
 _atom_site_moment_label
 _atom_site_moment_crystalaxis_x
 _atom_site_moment_crystalaxis_y
 _atom_site_moment_crystalaxis_z
  Mn0  -0.00002704  -0.00004956  4.38000000
  Mn1  -0.00002705  -0.00004957  4.38100000
  Mn2  -0.00002705  -0.00004957  4.38100000
  Mn3  -0.00002705  -0.00004957  4.38100000
  Mn4  -0.00002678  -0.00004909  4.33800000
  Mn5  -0.00002704  -0.00004956  4.38000000
  Mn6  -0.00002678  -0.00004909  4.33800000
  Mn7  -0.00002705  -0.00004957  4.38100000
  Mn8  -0.00002678  -0.00004909  4.33800000
  Mn9  -0.00002678  -0.00004909  4.33800000
  Ge10  0.00000138  0.00000252  -0.22300000
  Ge11  0.00000139  0.00000255  -0.22500000
  Ge12  0.00000136  0.00000249  -0.22000000
  Ge13  0.00000136  0.00000249  -0.22000000
  Ge14  0.00000139  0.00000255  -0.22500000
  Ge15  0.00000138  0.00000252  -0.22300000
