# generated using pymatgen
data_BaVSe3
_symmetry_space_group_name_H-M   'P 1'
_cell_length_a   6.02951600
_cell_length_b   7.05893824
_cell_length_c   7.05382594
_cell_angle_alpha   118.26410155
_cell_angle_beta   89.99846236
_cell_angle_gamma   89.99966270
_symmetry_Int_Tables_number   1
_chemical_formula_structural   BaVSe3
_chemical_formula_sum   'Ba2 V2 Se6'
_cell_volume   264.43026859
_cell_formula_units_Z   2
loop_
 _symmetry_equiv_pos_site_id
 _symmetry_equiv_pos_as_xyz
  1  'x, y, z'
loop_
 _atom_site_type_symbol
 _atom_site_label
 _atom_site_symmetry_multiplicity
 _atom_site_fract_x
 _atom_site_fract_y
 _atom_site_fract_z
 _atom_site_occupancy
  Ba  Ba0  1  0.75487000  0.33739500  0.66267400  1
  Ba  Ba1  1  0.25487400  0.66265700  0.33735900  1
  V  V2  1  0.01620800  0.02271400  0.97704700  1
  V  V3  1  0.51619600  0.97730000  0.02295700  1
  Se  Se4  1  0.24148100  0.66760800  0.83565100  1
  Se  Se5  1  0.24143100  0.16443500  0.33244200  1
  Se  Se6  1  0.27499100  0.17114700  0.82877300  1
  Se  Se7  1  0.74143600  0.83563400  0.66750900  1
  Se  Se8  1  0.74145600  0.33230100  0.16439500  1
  Se  Se9  1  0.77499500  0.82880900  0.17119500  1
loop_
 _atom_site_moment_label
 _atom_site_moment_crystalaxis_x
 _atom_site_moment_crystalaxis_y
 _atom_site_moment_crystalaxis_z
  Ba0  0.00000011  0.00008556  -0.00795913
  Ba1  0.00000011  0.00008556  -0.00795913
  V2  -0.00002168  -0.01734646  1.61371386
  V3  -0.00002170  -0.01735715  1.61470875
  Se4  0.00000198  0.00158278  -0.14724393
  Se5  0.00000198  0.00158278  -0.14724393
  Se6  0.00000281  0.00224584  -0.20892720
  Se7  0.00000198  0.00158278  -0.14724393
  Se8  0.00000197  0.00157209  -0.14624904
  Se9  0.00000281  0.00224584  -0.20892720
