# generated using pymatgen
data_KFeP
_symmetry_space_group_name_H-M   'P 1'
_cell_length_a   6.54494525
_cell_length_b   6.54478637
_cell_length_c   8.04862746
_cell_angle_alpha   66.01286093
_cell_angle_beta   113.99289662
_cell_angle_gamma   89.98950742
_symmetry_Int_Tables_number   1
_chemical_formula_structural   KFeP
_chemical_formula_sum   'K4 Fe4 P4'
_cell_volume   282.06104938
_cell_formula_units_Z   4
loop_
 _symmetry_equiv_pos_site_id
 _symmetry_equiv_pos_as_xyz
  1  'x, y, z'
loop_
 _atom_site_type_symbol
 _atom_site_label
 _atom_site_symmetry_multiplicity
 _atom_site_fract_x
 _atom_site_fract_y
 _atom_site_fract_z
 _atom_site_occupancy
  K  K0  1  0.74998900  0.75001100  0.49999800  1
  K  K1  1  0.50000300  0.49999800  0.99999500  1
  K  K2  1  0.24999300  0.24999200  0.49999700  1
  K  K3  1  0.99998700  0.00001100  0.99999700  1
  Fe  Fe4  1  0.62502000  0.37500900  0.75000300  1
  Fe  Fe5  1  0.37500400  0.12499700  0.25000100  1
  Fe  Fe6  1  0.87502800  0.62499800  0.25000300  1
  Fe  Fe7  1  0.12501600  0.87499200  0.75000900  1
  P  P8  1  0.49994600  0.00001300  0.00000000  1
  P  P9  1  0.25002100  0.74994300  0.49999800  1
  P  P10  1  0.00004300  0.49998200  0.00000100  1
  P  P11  1  0.74995000  0.25005400  0.49999800  1
loop_
 _atom_site_moment_label
 _atom_site_moment_crystalaxis_x
 _atom_site_moment_crystalaxis_y
 _atom_site_moment_crystalaxis_z
  Fe4  -3.85115879  1.27878563  -3.14454043
  Fe5  -3.85115879  1.27878563  -3.14454043
  Fe6  3.85115879  -1.27878563  3.14454043
  Fe7  3.85115879  -1.27878563  3.14454043
