# generated using pymatgen
data_Cr7Se8
_symmetry_space_group_name_H-M   'P 1'
_cell_length_a   7.25546562
_cell_length_b   7.25529557
_cell_length_c   8.97127626
_cell_angle_alpha   54.36803972
_cell_angle_beta   54.36672667
_cell_angle_gamma   62.83174114
_symmetry_Int_Tables_number   1
_chemical_formula_structural   Cr7Se8
_chemical_formula_sum   'Cr7 Se8'
_cell_volume   307.01836873
_cell_formula_units_Z   1
loop_
 _symmetry_equiv_pos_site_id
 _symmetry_equiv_pos_as_xyz
  1  'x, y, z'
loop_
 _atom_site_type_symbol
 _atom_site_label
 _atom_site_symmetry_multiplicity
 _atom_site_fract_x
 _atom_site_fract_y
 _atom_site_fract_z
 _atom_site_occupancy
  Cr  Cr0  1  0.49999700  0.49999400  0.00000200  1
  Cr  Cr1  1  0.49998500  0.99996400  0.50003000  1
  Cr  Cr2  1  0.99999000  0.50000700  0.50001100  1
  Cr  Cr3  1  0.23147900  0.76852400  0.50002200  1
  Cr  Cr4  1  0.76853300  0.23148700  0.49996500  1
  Cr  Cr5  1  0.23428000  0.23428700  0.00895200  1
  Cr  Cr6  1  0.76572700  0.76572200  0.99103600  1
  Se  Se7  1  0.04919600  0.04919200  0.66535900  1
  Se  Se8  1  0.95080700  0.95081100  0.33463600  1
  Se  Se9  1  0.53455400  0.53458600  0.66760500  1
  Se  Se10  1  0.46544800  0.46541900  0.33238900  1
  Se  Se11  1  0.52724100  0.04152400  0.16847000  1
  Se  Se12  1  0.95849300  0.47277200  0.83151700  1
  Se  Se13  1  0.04150900  0.52723100  0.16847900  1
  Se  Se14  1  0.47276000  0.95848000  0.83152600  1
loop_
 _atom_site_moment_label
 _atom_site_moment_crystalaxis_x
 _atom_site_moment_crystalaxis_y
 _atom_site_moment_crystalaxis_z
  Cr0  -0.01860186  -0.01848873  3.85553868
  Cr1  -0.01860186  -0.01848873  3.85553868
  Cr2  -0.01860186  -0.01848873  3.85553868
  Cr3  -0.01785468  -0.01774610  3.70067354
  Cr4  -0.01785468  -0.01774610  3.70067354
  Cr5  -0.01787409  -0.01776539  3.70469601
  Cr6  -0.01786923  -0.01776057  3.70369039
  Se7  0.00104314  0.00103680  -0.21620783
  Se8  0.00104314  0.00103680  -0.21620783
  Se9  0.00095096  0.00094517  -0.19710109
  Se10  0.00095096  0.00094517  -0.19710109
  Se11  0.00103344  0.00102715  -0.21419659
  Se12  0.00103344  0.00102715  -0.21419659
  Se13  0.00103344  0.00102715  -0.21419659
  Se14  0.00103344  0.00102715  -0.21419659
