# generated using pymatgen
data_Ca5FePb3
_symmetry_space_group_name_H-M   'P 1'
_cell_length_a   6.83929251
_cell_length_b   9.57860957
_cell_length_c   9.55643515
_cell_angle_alpha   59.92535682
_cell_angle_beta   90.38935735
_cell_angle_gamma   90.55392624
_symmetry_Int_Tables_number   1
_chemical_formula_structural   Ca5FePb3
_chemical_formula_sum   'Ca10 Fe2 Pb6'
_cell_volume   541.74093203
_cell_formula_units_Z   2
loop_
 _symmetry_equiv_pos_site_id
 _symmetry_equiv_pos_as_xyz
  1  'x, y, z'
loop_
 _atom_site_type_symbol
 _atom_site_label
 _atom_site_symmetry_multiplicity
 _atom_site_fract_x
 _atom_site_fract_y
 _atom_site_fract_z
 _atom_site_occupancy
  Ca  Ca0  1  0.00002000  0.33149600  0.33744100  1
  Ca  Ca1  1  0.99997600  0.66849200  0.66254200  1
  Ca  Ca2  1  0.49999500  0.33380700  0.33263500  1
  Ca  Ca3  1  0.50001600  0.66619300  0.66735800  1
  Ca  Ca4  1  0.26254700  0.28340600  0.00034400  1
  Ca  Ca5  1  0.75268700  0.00122700  0.28383100  1
  Ca  Ca6  1  0.75316600  0.28431600  0.71668200  1
  Ca  Ca7  1  0.24692600  0.71563600  0.28333400  1
  Ca  Ca8  1  0.73740300  0.71665800  0.99966100  1
  Ca  Ca9  1  0.24727700  0.99875800  0.71615100  1
  Fe  Fe10  1  0.00006100  0.00001800  0.00001400  1
  Fe  Fe11  1  0.49991400  0.00003900  0.99999800  1
  Pb  Pb12  1  0.25571800  0.99965600  0.37076200  1
  Pb  Pb13  1  0.76830000  0.37626500  0.99990800  1
  Pb  Pb14  1  0.25560400  0.37096900  0.62884200  1
  Pb  Pb15  1  0.23158200  0.62374100  0.00008800  1
  Pb  Pb16  1  0.74454000  0.62898700  0.37120000  1
  Pb  Pb17  1  0.74426600  0.00033700  0.62921000  1
loop_
 _atom_site_moment_label
 _atom_site_moment_crystalaxis_x
 _atom_site_moment_crystalaxis_y
 _atom_site_moment_crystalaxis_z
  Ca2  -0.00001163  0.00000526  -0.00300269
  Ca3  -0.00001163  0.00000526  -0.00300269
  Ca4  -0.00001550  0.00000701  -0.00400358
  Ca5  -0.00002325  0.00001051  -0.00600537
  Ca6  -0.00001938  0.00000876  -0.00500448
  Ca7  -0.00001938  0.00000876  -0.00500448
  Ca8  -0.00001550  0.00000701  -0.00400358
  Ca9  -0.00002325  0.00001051  -0.00600537
  Fe10  0.01319539  -0.00596653  3.40805004
  Fe11  -0.01211805  0.00547939  -3.12980102
  Pb12  -0.00003100  0.00001402  -0.00800717
  Pb13  -0.00001550  0.00000701  -0.00400358
  Pb14  -0.00002325  0.00001051  -0.00600537
  Pb15  -0.00001550  0.00000701  -0.00400358
  Pb16  -0.00001938  0.00000876  -0.00500448
  Pb17  -0.00003100  0.00001402  -0.00800717
