# generated using pymatgen
data_Ca5MnPb3
_symmetry_space_group_name_H-M   'P 1'
_cell_length_a   6.90594906
_cell_length_b   9.52888575
_cell_length_c   9.53229528
_cell_angle_alpha   60.01209805
_cell_angle_beta   90.01447104
_cell_angle_gamma   90.00696293
_symmetry_Int_Tables_number   1
_chemical_formula_structural   Ca5MnPb3
_chemical_formula_sum   'Ca10 Mn2 Pb6'
_cell_volume   543.30853314
_cell_formula_units_Z   2
loop_
 _symmetry_equiv_pos_site_id
 _symmetry_equiv_pos_as_xyz
  1  'x, y, z'
loop_
 _atom_site_type_symbol
 _atom_site_label
 _atom_site_symmetry_multiplicity
 _atom_site_fract_x
 _atom_site_fract_y
 _atom_site_fract_z
 _atom_site_occupancy
  Ca  Ca0  1  0.99999700  0.33329900  0.33343500  1
  Ca  Ca1  1  0.99999600  0.66669700  0.66656900  1
  Ca  Ca2  1  0.49999800  0.33328400  0.33337500  1
  Ca  Ca3  1  0.49999800  0.66672100  0.66661600  1
  Ca  Ca4  1  0.74996900  0.99995500  0.30137400  1
  Ca  Ca5  1  0.25004300  0.00005100  0.69862200  1
  Ca  Ca6  1  0.74982400  0.69867400  0.99999900  1
  Ca  Ca7  1  0.75015100  0.30135300  0.69860100  1
  Ca  Ca8  1  0.25018200  0.30132900  0.00000300  1
  Ca  Ca9  1  0.24984500  0.69864700  0.30139600  1
  Mn  Mn10  1  0.00000500  0.99999900  0.00000000  1
  Mn  Mn11  1  0.50000000  0.00000100  0.00000100  1
  Pb  Pb12  1  0.25021500  0.35787800  0.64218100  1
  Pb  Pb13  1  0.74978300  0.64212200  0.35781600  1
  Pb  Pb14  1  0.75006900  0.99997600  0.64218700  1
  Pb  Pb15  1  0.24971500  0.64205500  0.00003800  1
  Pb  Pb16  1  0.24992600  0.00001600  0.35781800  1
  Pb  Pb17  1  0.75028400  0.35794400  0.99996800  1
loop_
 _atom_site_moment_label
 _atom_site_moment_crystalaxis_x
 _atom_site_moment_crystalaxis_y
 _atom_site_moment_crystalaxis_z
  Ca0  -0.00000050  -0.00000096  -0.00399952
  Ca1  -0.00000038  -0.00000072  -0.00299964
  Ca2  0.00000038  0.00000072  0.00299964
  Ca3  0.00000050  0.00000096  0.00399952
  Mn10  -0.00058668  -0.00112665  -4.67143689
  Mn11  0.00058668  0.00112665  4.67143689
  Pb12  0.00000013  0.00000024  0.00099988
  Pb13  0.00000013  0.00000024  0.00099988
  Pb14  0.00000013  0.00000024  0.00099988
  Pb15  -0.00000038  -0.00000072  -0.00299964
  Pb16  0.00000013  0.00000024  0.00099988
  Pb17  -0.00000038  -0.00000072  -0.00299964
