# generated using pymatgen
data_CrTe2
_symmetry_space_group_name_H-M   'P 1'
_cell_length_a   3.97270500
_cell_length_b   3.97270276
_cell_length_c   12.05382400
_cell_angle_alpha   89.99978614
_cell_angle_beta   90.00017652
_cell_angle_gamma   120.00008689
_symmetry_Int_Tables_number   1
_chemical_formula_structural   CrTe2
_chemical_formula_sum   'Cr2 Te4'
_cell_volume   164.75078271
_cell_formula_units_Z   2
loop_
 _symmetry_equiv_pos_site_id
 _symmetry_equiv_pos_as_xyz
  1  'x, y, z'
loop_
 _atom_site_type_symbol
 _atom_site_label
 _atom_site_symmetry_multiplicity
 _atom_site_fract_x
 _atom_site_fract_y
 _atom_site_fract_z
 _atom_site_occupancy
  Cr  Cr0  1  0.00000100  0.00000000  0.75000000  1
  Cr  Cr1  1  0.99999900  0.00000000  0.25000000  1
  Te  Te2  1  0.66666600  0.33333200  0.12315300  1
  Te  Te3  1  0.66666800  0.33333300  0.62315500  1
  Te  Te4  1  0.33333300  0.66666700  0.37684800  1
  Te  Te5  1  0.33333300  0.66666700  0.87684600  1
loop_
 _atom_site_moment_label
 _atom_site_moment_crystalaxis_x
 _atom_site_moment_crystalaxis_y
 _atom_site_moment_crystalaxis_z
  Cr0  -0.00000383  0.00000658  -3.43400000
  Cr1  0.00000383  -0.00000658  3.43500000
  Te2  -0.00000028  0.00000048  -0.25200000
  Te3  0.00000028  -0.00000048  0.25100000
  Te4  -0.00000028  0.00000048  -0.25200000
  Te5  0.00000028  -0.00000048  0.25100000
