# generated using pymatgen
data_NiSe
_symmetry_space_group_name_H-M   'P 1'
_cell_length_a   3.72181100
_cell_length_b   3.72181060
_cell_length_c   5.79519800
_cell_angle_alpha   89.99929049
_cell_angle_beta   89.99928774
_cell_angle_gamma   59.99921400
_symmetry_Int_Tables_number   1
_chemical_formula_structural   NiSe
_chemical_formula_sum   'Ni2 Se2'
_cell_volume   69.51908612
_cell_formula_units_Z   2
loop_
 _symmetry_equiv_pos_site_id
 _symmetry_equiv_pos_as_xyz
  1  'x, y, z'
loop_
 _atom_site_type_symbol
 _atom_site_label
 _atom_site_symmetry_multiplicity
 _atom_site_fract_x
 _atom_site_fract_y
 _atom_site_fract_z
 _atom_site_occupancy
  Ni  Ni0  1  0.00000000  0.00000000  0.50000000  1
  Ni  Ni1  1  0.00000000  0.00000000  0.00000000  1
  Se  Se2  1  0.66666600  0.66666600  0.25000000  1
  Se  Se3  1  0.33333400  0.33333400  0.75000000  1
loop_
 _atom_site_moment_label
 _atom_site_moment_crystalaxis_x
 _atom_site_moment_crystalaxis_y
 _atom_site_moment_crystalaxis_z
  Ni0  0.00000522  0.00000507  -1.49800000
  Ni1  -0.00000522  -0.00000507  1.49800000
