# generated using pymatgen
data_V5As3
_symmetry_space_group_name_H-M   'P 1'
_cell_length_a   5.76752130
_cell_length_b   7.62966070
_cell_length_c   7.63047171
_cell_angle_alpha   98.22805401
_cell_angle_beta   67.76243809
_cell_angle_gamma   112.23464862
_symmetry_Int_Tables_number   1
_chemical_formula_structural   V5As3
_chemical_formula_sum   'V10 As6'
_cell_volume   287.68871036
_cell_formula_units_Z   2
loop_
 _symmetry_equiv_pos_site_id
 _symmetry_equiv_pos_as_xyz
  1  'x, y, z'
loop_
 _atom_site_type_symbol
 _atom_site_label
 _atom_site_symmetry_multiplicity
 _atom_site_fract_x
 _atom_site_fract_y
 _atom_site_fract_z
 _atom_site_occupancy
  V  V0  1  0.79406600  0.50007600  0.49986200  1
  V  V1  1  0.18840800  0.14938800  0.70990600  1
  V  V2  1  0.53879000  0.85045000  0.70985400  1
  V  V3  1  0.74857000  0.85037000  0.29010300  1
  V  V4  1  0.39829200  0.14944100  0.28999000  1
  V  V5  1  0.29417300  0.50011000  0.49991700  1
  V  V6  1  0.24856400  0.70992800  0.14967800  1
  V  V7  1  0.68826400  0.29004800  0.85055400  1
  V  V8  1  0.03864200  0.29011000  0.14960300  1
  V  V9  1  0.89830600  0.71005900  0.85051400  1
  As  As10  1  0.72728200  0.99991900  0.00003600  1
  As  As11  1  0.22727100  0.99995900  0.00011900  1
  As  As12  1  0.71639100  0.50004500  0.17213200  1
  As  As13  1  0.38829500  0.50002300  0.82778000  1
  As  As14  1  0.88828800  0.17224100  0.49998100  1
  As  As15  1  0.21639700  0.82783400  0.49997200  1
loop_
 _atom_site_moment_label
 _atom_site_moment_crystalaxis_x
 _atom_site_moment_crystalaxis_y
 _atom_site_moment_crystalaxis_z
  V0  -0.09338739  -2.59789270  -0.00009488
  V1  -0.09644689  -2.68300307  -0.00009799
  V2  -0.09644689  -2.68300307  -0.00009799
  V3  -0.09644689  -2.68300307  -0.00009799
  V4  -0.09644689  -2.68300307  -0.00009799
  V5  0.09342382  2.59890592  0.00009491
  V6  0.09644689  2.68300307  0.00009799
  V7  0.09644689  2.68300307  0.00009799
  V8  0.09644689  2.68300307  0.00009799
  V9  0.09644689  2.68300307  0.00009799
  As12  -0.00025496  -0.00709253  -0.00000026
  As13  -0.00025496  -0.00709253  -0.00000026
  As14  0.00025496  0.00709253  0.00000026
  As15  0.00025496  0.00709253  0.00000026
