# generated using pymatgen
data_LiVS2
_symmetry_space_group_name_H-M   'P 1'
_cell_length_a   3.53066700
_cell_length_b   8.72268625
_cell_length_c   8.71573244
_cell_angle_alpha   90.31659355
_cell_angle_beta   90.00020629
_cell_angle_gamma   90.00036062
_symmetry_Int_Tables_number   1
_chemical_formula_structural   LiVS2
_chemical_formula_sum   'Li4 V4 S8'
_cell_volume   268.41344715
_cell_formula_units_Z   4
loop_
 _symmetry_equiv_pos_site_id
 _symmetry_equiv_pos_as_xyz
  1  'x, y, z'
loop_
 _atom_site_type_symbol
 _atom_site_label
 _atom_site_symmetry_multiplicity
 _atom_site_fract_x
 _atom_site_fract_y
 _atom_site_fract_z
 _atom_site_occupancy
  Li  Li0  1  0.50000500  0.49991200  0.00013200  1
  Li  Li1  1  0.99999500  0.25008600  0.24988100  1
  Li  Li2  1  0.99999800  0.74984500  0.74996500  1
  Li  Li3  1  0.50000300  0.00017500  0.50003800  1
  V  V4  1  0.50003000  0.24946900  0.75066200  1
  V  V5  1  0.99996700  0.50064800  0.49934000  1
  V  V6  1  0.99998500  0.00054400  0.99920700  1
  V  V7  1  0.50000400  0.74938300  0.25081500  1
  S  S8  1  0.49998800  0.53271200  0.69800800  1
  S  S9  1  0.00002200  0.28436800  0.94915800  1
  S  S10  1  0.00000100  0.78431000  0.44930100  1
  S  S11  1  0.50000200  0.03267200  0.19796800  1
  S  S12  1  0.99999400  0.71726700  0.05209300  1
  S  S13  1  0.49999200  0.46559000  0.30079100  1
  S  S14  1  0.50000400  0.96572300  0.80072800  1
  S  S15  1  0.00001100  0.21729800  0.55191200  1
loop_
 _atom_site_moment_label
 _atom_site_moment_crystalaxis_x
 _atom_site_moment_crystalaxis_y
 _atom_site_moment_crystalaxis_z
  Li0  0.00000000  0.00070900  0.00070913
  Li1  0.00000000  0.00070900  0.00070913
  Li2  0.00000000  -0.00070900  -0.00070913
  Li3  0.00000000  -0.00070900  -0.00070913
  V4  -0.00000649  -1.38043261  -1.38068011
  V5  -0.00000649  -1.38043261  -1.38068011
  V6  0.00000649  1.38043261  1.38068011
  V7  0.00000649  1.38043261  1.38068011
  S8  0.00000018  0.03757726  0.03758400
  S9  0.00000007  0.01559811  0.01560091
  S10  -0.00000007  -0.01559811  -0.01560091
  S11  -0.00000018  -0.03757726  -0.03758400
  S12  -0.00000018  -0.03757726  -0.03758400
  S13  0.00000007  0.01559811  0.01560091
  S14  -0.00000007  -0.01559811  -0.01560091
  S15  0.00000018  0.03757726  0.03758400
