# generated using pymatgen
data_Li2CuS2
_symmetry_space_group_name_H-M   'P 1'
_cell_length_a   5.52367847
_cell_length_b   11.06357528
_cell_length_c   5.97134532
_cell_angle_alpha   89.77216313
_cell_angle_beta   89.79085721
_cell_angle_gamma   90.06836949
_symmetry_Int_Tables_number   1
_chemical_formula_structural   Li2CuS2
_chemical_formula_sum   'Li8 Cu4 S8'
_cell_volume   364.91307833
_cell_formula_units_Z   4
loop_
 _symmetry_equiv_pos_site_id
 _symmetry_equiv_pos_as_xyz
  1  'x, y, z'
loop_
 _atom_site_type_symbol
 _atom_site_label
 _atom_site_symmetry_multiplicity
 _atom_site_fract_x
 _atom_site_fract_y
 _atom_site_fract_z
 _atom_site_occupancy
  Li  Li0  1  0.49740700  0.49840900  0.76196400  1
  Li  Li1  1  0.49741000  0.99840900  0.76196500  1
  Li  Li2  1  0.99685200  0.24868400  0.76196000  1
  Li  Li3  1  0.99685700  0.74869200  0.76196200  1
  Li  Li4  1  0.49796700  0.49593200  0.26235800  1
  Li  Li5  1  0.49796600  0.99593100  0.26235700  1
  Li  Li6  1  0.99182100  0.24899100  0.26236600  1
  Li  Li7  1  0.99182300  0.74900000  0.26236800  1
  Cu  Cu8  1  0.99966600  0.49978500  0.26286400  1
  Cu  Cu9  1  0.99896700  0.49950100  0.76401400  1
  Cu  Cu10  1  0.99963600  0.99978600  0.26285300  1
  Cu  Cu11  1  0.99898800  0.99950100  0.76417700  1
  S  S12  1  0.22581300  0.11295100  0.51121600  1
  S  S13  1  0.22582100  0.61299400  0.51121000  1
  S  S14  1  0.77160800  0.38574500  0.51395600  1
  S  S15  1  0.77161000  0.88578900  0.51397300  1
  S  S16  1  0.76908000  0.11180500  0.01254900  1
  S  S17  1  0.76911800  0.61183000  0.01255000  1
  S  S18  1  0.22350100  0.38448300  0.01256200  1
  S  S19  1  0.22354200  0.88450800  0.01258000  1
loop_
 _atom_site_moment_label
 _atom_site_moment_crystalaxis_x
 _atom_site_moment_crystalaxis_y
 _atom_site_moment_crystalaxis_z
  Li0  -0.00000038  -0.00000054  0.00100000
  Li1  0.00000038  0.00000054  -0.00100000
  Li4  -0.00000038  -0.00000054  0.00100000
  Li5  0.00000038  0.00000054  -0.00100000
  Cu8  0.00010493  0.00014888  -0.27400091
  Cu9  0.00010493  0.00014888  -0.27400091
  Cu10  -0.00010455  -0.00014834  0.27300091
  Cu11  -0.00010493  -0.00014888  0.27400091
  S12  -0.00007276  -0.00010324  0.19000063
  S13  0.00007238  0.00010269  -0.18900063
  S14  0.00007238  0.00010269  -0.18900063
  S15  -0.00007238  -0.00010269  0.18900063
  S16  -0.00007199  -0.00010215  0.18800063
  S17  0.00007199  0.00010215  -0.18800063
  S18  0.00007199  0.00010215  -0.18800063
  S19  -0.00007199  -0.00010215  0.18800063
