# generated using pymatgen
data_LiNiP
_symmetry_space_group_name_H-M   'P 1'
_cell_length_a   3.68254800
_cell_length_b   3.68252800
_cell_length_c   11.77993100
_cell_angle_alpha   90.00018577
_cell_angle_beta   89.99997471
_cell_angle_gamma   89.99987553
_symmetry_Int_Tables_number   1
_chemical_formula_structural   LiNiP
_chemical_formula_sum   'Li4 Ni4 P4'
_cell_volume   159.74865879
_cell_formula_units_Z   4
loop_
 _symmetry_equiv_pos_site_id
 _symmetry_equiv_pos_as_xyz
  1  'x, y, z'
loop_
 _atom_site_type_symbol
 _atom_site_label
 _atom_site_symmetry_multiplicity
 _atom_site_fract_x
 _atom_site_fract_y
 _atom_site_fract_z
 _atom_site_occupancy
  Li  Li0  1  0.00000000  0.50000000  0.16763500  1
  Li  Li1  1  0.00000000  0.49999800  0.66773100  1
  Li  Li2  1  0.50000100  0.99999800  0.33227300  1
  Li  Li3  1  0.50000100  0.99999900  0.83236800  1
  Ni  Ni4  1  0.00001600  0.00000300  0.50001600  1
  Ni  Ni5  1  0.49997700  0.49998500  0.49997200  1
  Ni  Ni6  1  0.00000400  0.99999800  0.00000200  1
  Ni  Ni7  1  0.49999300  0.50000800  0.00000000  1
  P  P8  1  0.00000000  0.50000100  0.38495600  1
  P  P9  1  0.99999700  0.49999500  0.88536300  1
  P  P10  1  0.50001200  0.00001500  0.11463800  1
  P  P11  1  0.49999900  0.99999800  0.61504700  1
loop_
 _atom_site_moment_label
 _atom_site_moment_crystalaxis_x
 _atom_site_moment_crystalaxis_y
 _atom_site_moment_crystalaxis_z
  Ni4  0.00000012  -0.00000111  -0.68800000
  Ni5  0.00000012  -0.00000111  -0.69100000
  Ni6  -0.00000012  0.00000111  0.68800000
  Ni7  -0.00000012  0.00000111  0.68700000
  P8  0.00000000  -0.00000008  -0.04700000
  P9  0.00000000  0.00000008  0.04700000
  P10  0.00000000  0.00000008  0.04700000
  P11  0.00000000  -0.00000008  -0.04700000
