# generated using pymatgen
data_LiNi9S10
_symmetry_space_group_name_H-M   'P 1'
_cell_length_a   6.07574165
_cell_length_b   6.64753087
_cell_length_c   8.28297506
_cell_angle_alpha   104.08080797
_cell_angle_beta   111.44028709
_cell_angle_gamma   90.08093775
_symmetry_Int_Tables_number   1
_chemical_formula_structural   LiNi9S10
_chemical_formula_sum   'Li1 Ni9 S10'
_cell_volume   300.51598487
_cell_formula_units_Z   1
loop_
 _symmetry_equiv_pos_site_id
 _symmetry_equiv_pos_as_xyz
  1  'x, y, z'
loop_
 _atom_site_type_symbol
 _atom_site_label
 _atom_site_symmetry_multiplicity
 _atom_site_fract_x
 _atom_site_fract_y
 _atom_site_fract_z
 _atom_site_occupancy
  Li  Li0  1  0.00000200  0.99999700  0.49999800  1
  Ni  Ni1  1  0.19652400  0.39895400  0.89605700  1
  Ni  Ni2  1  0.80347500  0.60103200  0.10393500  1
  Ni  Ni3  1  0.40092400  0.80275900  0.30310900  1
  Ni  Ni4  1  0.59909100  0.19724200  0.69689700  1
  Ni  Ni5  1  0.49998000  0.50005900  0.50000700  1
  Ni  Ni6  1  0.09549600  0.70687100  0.69664100  1
  Ni  Ni7  1  0.90449300  0.29310300  0.30335300  1
  Ni  Ni8  1  0.69567200  0.89820200  0.90095200  1
  Ni  Ni9  1  0.30434300  0.10178500  0.09905500  1
  S  S10  1  0.48075200  0.54581500  0.80139900  1
  S  S11  1  0.51924800  0.45417900  0.19859600  1
  S  S12  1  0.71153400  0.84817000  0.60489800  1
  S  S13  1  0.28848500  0.15185200  0.39511100  1
  S  S14  1  0.88035100  0.35962900  0.59901800  1
  S  S15  1  0.11961400  0.64037800  0.40097300  1
  S  S16  1  0.31877400  0.04837200  0.80290700  1
  S  S17  1  0.68123300  0.95161300  0.19709400  1
  S  S18  1  0.08330700  0.75063100  0.00156300  1
  S  S19  1  0.91670100  0.24935700  0.99843700  1
loop_
 _atom_site_moment_label
 _atom_site_moment_crystalaxis_x
 _atom_site_moment_crystalaxis_y
 _atom_site_moment_crystalaxis_z
  Li0  -0.00002560  0.00011335  0.00401657
  Ni1  0.00980433  -0.04341220  -1.53834688
  Ni2  0.00980433  -0.04341220  -1.53834688
  Ni3  0.00981073  -0.04344053  -1.53935102
  Ni4  0.00981073  -0.04344053  -1.53935102
  Ni5  -0.00975313  0.04318550  1.53031374
  Ni6  -0.00984273  0.04358222  1.54437174
  Ni7  -0.00984273  0.04358222  1.54437174
  Ni8  -0.00978513  0.04332719  1.53533445
  Ni9  -0.00978513  0.04332719  1.53533445
  S10  0.00014719  -0.00065175  -0.02309529
  S11  0.00014719  -0.00065175  -0.02309529
  S12  -0.00004480  0.00019836  0.00702900
  S13  -0.00004480  0.00019836  0.00702900
  S14  -0.00002560  0.00011335  0.00401657
  S15  -0.00002560  0.00011335  0.00401657
  S16  -0.00005120  0.00022670  0.00803314
  S17  -0.00005120  0.00022670  0.00803314
  S18  0.00014719  -0.00065175  -0.02309529
  S19  0.00014719  -0.00065175  -0.02309529
