# generated using pymatgen
data_Li2FeS2
_symmetry_space_group_name_H-M   'P 1'
_cell_length_a   5.65573132
_cell_length_b   8.31686555
_cell_length_c   8.31667816
_cell_angle_alpha   90.03444049
_cell_angle_beta   90.36621013
_cell_angle_gamma   90.36619065
_symmetry_Int_Tables_number   1
_chemical_formula_structural   Li2FeS2
_chemical_formula_sum   'Li8 Fe4 S8'
_cell_volume   391.18348852
_cell_formula_units_Z   4
loop_
 _symmetry_equiv_pos_site_id
 _symmetry_equiv_pos_as_xyz
  1  'x, y, z'
loop_
 _atom_site_type_symbol
 _atom_site_label
 _atom_site_symmetry_multiplicity
 _atom_site_fract_x
 _atom_site_fract_y
 _atom_site_fract_z
 _atom_site_occupancy
  Li  Li0  1  0.00001900  0.87541500  0.62458100  1
  Li  Li1  1  0.99999400  0.37560200  0.12440500  1
  Li  Li2  1  0.49987400  0.62542100  0.37491200  1
  Li  Li3  1  0.50013200  0.12510000  0.87458100  1
  Li  Li4  1  0.99999000  0.12440300  0.37559800  1
  Li  Li5  1  0.00000800  0.62450700  0.87548500  1
  Li  Li6  1  0.50020200  0.87451400  0.12521100  1
  Li  Li7  1  0.49978200  0.37478900  0.62548200  1
  Fe  Fe8  1  0.50001000  0.62616400  0.87383900  1
  Fe  Fe9  1  0.49999700  0.37417900  0.12584000  1
  Fe  Fe10  1  0.49999300  0.12620100  0.37380000  1
  Fe  Fe11  1  0.50001400  0.87465500  0.62535800  1
  S  S12  1  0.73004200  0.88303900  0.38292300  1
  S  S13  1  0.72967800  0.38285400  0.88314500  1
  S  S14  1  0.26936700  0.13231800  0.13285400  1
  S  S15  1  0.26963400  0.63259800  0.63278900  1
  S  S16  1  0.73062400  0.36712800  0.36768300  1
  S  S17  1  0.73037700  0.86719200  0.86740900  1
  S  S18  1  0.26995300  0.11706900  0.61696300  1
  S  S19  1  0.27031000  0.61685100  0.11714000  1
loop_
 _atom_site_moment_label
 _atom_site_moment_crystalaxis_x
 _atom_site_moment_crystalaxis_y
 _atom_site_moment_crystalaxis_z
  Fe8  -0.01558069  -2.51318098  -2.51318162
  Fe9  -0.01557192  -2.51176630  -2.51176694
  Fe10  0.01558069  2.51318098  2.51318162
  Fe11  0.01557192  2.51176630  2.51176694
  S12  0.00024119  0.03890373  0.03890374
  S13  -0.00024119  -0.03890373  -0.03890374
  S14  0.00000439  0.00070734  0.00070734
  S15  -0.00000439  -0.00070734  -0.00070734
  S16  0.00000439  0.00070734  0.00070734
  S17  -0.00000439  -0.00070734  -0.00070734
  S18  0.00024119  0.03890373  0.03890374
  S19  -0.00024119  -0.03890373  -0.03890374
