# generated using pymatgen
data_Li(Fe3P2)2
_symmetry_space_group_name_H-M   'P 1'
_cell_length_a   3.56211406
_cell_length_b   7.36569471
_cell_length_c   7.21868175
_cell_angle_alpha   119.24064034
_cell_angle_beta   91.12190879
_cell_angle_gamma   89.75302475
_symmetry_Int_Tables_number   1
_chemical_formula_structural   Li(Fe3P2)2
_chemical_formula_sum   'Li1 Fe6 P4'
_cell_volume   165.23097488
_cell_formula_units_Z   1
loop_
 _symmetry_equiv_pos_site_id
 _symmetry_equiv_pos_as_xyz
  1  'x, y, z'
loop_
 _atom_site_type_symbol
 _atom_site_label
 _atom_site_symmetry_multiplicity
 _atom_site_fract_x
 _atom_site_fract_y
 _atom_site_fract_z
 _atom_site_occupancy
  Li  Li0  1  0.99832000  0.00713200  0.00593800  1
  Fe  Fe1  1  0.48959100  0.39512300  0.20451300  1
  Fe  Fe2  1  0.98037000  0.45726500  0.90638500  1
  Fe  Fe3  1  0.01751300  0.44732000  0.53361900  1
  Fe  Fe4  1  0.50417100  0.81239000  0.60231600  1
  Fe  Fe5  1  0.50413500  0.80965700  0.20972700  1
  Fe  Fe6  1  0.00289800  0.06643600  0.53632800  1
  P  P7  1  0.99986300  0.65683700  0.32833000  1
  P  P8  1  0.48981100  0.66145300  0.83098400  1
  P  P9  1  0.49161800  0.18219300  0.82651900  1
  P  P10  1  0.52171000  0.17086200  0.34867400  1
loop_
 _atom_site_moment_label
 _atom_site_moment_crystalaxis_x
 _atom_site_moment_crystalaxis_y
 _atom_site_moment_crystalaxis_z
  Li0  -0.00003899  0.00000449  -0.00399838
  Fe1  -0.03152666  0.00362636  -3.23269054
  Fe2  -0.03308642  0.00380577  -3.39262575
  Fe3  -0.03290120  0.00378447  -3.37363344
  Fe4  0.03116597  -0.00358487  3.19570552
  Fe5  0.02970369  -0.00341667  3.04576625
  Fe6  0.03219931  -0.00370373  3.30166260
  P7  -0.00014623  0.00001682  -0.01499393
  P8  -0.00014623  0.00001682  -0.01499393
  P9  -0.00022422  0.00002579  -0.02299069
  P10  -0.00013648  0.00001570  -0.01399433
