# generated using pymatgen
data_Li2Fe3S4
_symmetry_space_group_name_H-M   'P 1'
_cell_length_a   6.36987607
_cell_length_b   6.44085093
_cell_length_c   9.53162207
_cell_angle_alpha   70.18029599
_cell_angle_beta   108.02333163
_cell_angle_gamma   90.19774186
_symmetry_Int_Tables_number   1
_chemical_formula_structural   Li2Fe3S4
_chemical_formula_sum   'Li4 Fe6 S8'
_cell_volume   347.58392699
_cell_formula_units_Z   2
loop_
 _symmetry_equiv_pos_site_id
 _symmetry_equiv_pos_as_xyz
  1  'x, y, z'
loop_
 _atom_site_type_symbol
 _atom_site_label
 _atom_site_symmetry_multiplicity
 _atom_site_fract_x
 _atom_site_fract_y
 _atom_site_fract_z
 _atom_site_occupancy
  Li  Li0  1  0.04968700  0.17796400  0.83772400  1
  Li  Li1  1  0.55002700  0.98464500  0.83776700  1
  Li  Li2  1  0.45060000  0.01486800  0.16262600  1
  Li  Li3  1  0.94976200  0.82208000  0.16186200  1
  Fe  Fe4  1  0.74988500  0.47752500  0.99950400  1
  Fe  Fe5  1  0.07938400  0.18657700  0.37909400  1
  Fe  Fe6  1  0.58028000  0.43489600  0.37887400  1
  Fe  Fe7  1  0.25015400  0.52215300  0.00025200  1
  Fe  Fe8  1  0.41952200  0.56560900  0.62053400  1
  Fe  Fe9  1  0.92049900  0.81314300  0.62170200  1
  S  S10  1  0.43085000  0.31369000  0.88608500  1
  S  S11  1  0.93078500  0.79980300  0.88655400  1
  S  S12  1  0.06978100  0.20053600  0.11383800  1
  S  S13  1  0.56874600  0.68667100  0.11351600  1
  S  S14  1  0.28717600  0.90863800  0.62594800  1
  S  S15  1  0.21328200  0.53528600  0.37342300  1
  S  S16  1  0.78641700  0.46480000  0.62627100  1
  S  S17  1  0.71316000  0.09111600  0.37442500  1
loop_
 _atom_site_moment_label
 _atom_site_moment_crystalaxis_x
 _atom_site_moment_crystalaxis_y
 _atom_site_moment_crystalaxis_z
  Li0  0.00000343  0.00069871  -0.00098912
  Li1  -0.00000343  -0.00069871  0.00098912
  Li2  0.00000343  0.00069871  -0.00098912
  Li3  -0.00000343  -0.00069871  0.00098912
  Fe4  0.01232957  2.51257051  -3.55689090
  Fe5  0.01231243  2.50907695  -3.55194528
  Fe6  0.01232272  2.51117309  -3.55491265
  Fe7  -0.01232957  -2.51257051  3.55689090
  Fe8  -0.01232272  -2.51117309  3.55491265
  Fe9  -0.01231243  -2.50907695  3.55194528
  S10  -0.00006515  -0.01327554  0.01879336
  S11  -0.00002743  -0.00558970  0.00791299
  S12  0.00002743  0.00558970  -0.00791299
  S13  0.00006515  0.01327554  -0.01879336
  S14  -0.00005486  -0.01117940  0.01582599
  S15  0.00004800  0.00978198  -0.01384774
  S16  -0.00004800  -0.00978198  0.01384774
  S17  0.00005486  0.01117940  -0.01582599
