# generated using pymatgen
data_Li2FeS2
_symmetry_space_group_name_H-M   'P 1'
_cell_length_a   6.40508152
_cell_length_b   6.74329614
_cell_length_c   8.41706906
_cell_angle_alpha   91.87838818
_cell_angle_beta   89.42914811
_cell_angle_gamma   89.79534141
_symmetry_Int_Tables_number   1
_chemical_formula_structural   Li2FeS2
_chemical_formula_sum   'Li8 Fe4 S8'
_cell_volume   363.32852358
_cell_formula_units_Z   4
loop_
 _symmetry_equiv_pos_site_id
 _symmetry_equiv_pos_as_xyz
  1  'x, y, z'
loop_
 _atom_site_type_symbol
 _atom_site_label
 _atom_site_symmetry_multiplicity
 _atom_site_fract_x
 _atom_site_fract_y
 _atom_site_fract_z
 _atom_site_occupancy
  Li  Li0  1  0.65187100  0.12401100  0.73255400  1
  Li  Li1  1  0.84986600  0.12558300  0.23643800  1
  Li  Li2  1  0.14765700  0.87475000  0.76742100  1
  Li  Li3  1  0.34677200  0.87543200  0.26498100  1
  Li  Li4  1  0.98416400  0.47556300  0.82322000  1
  Li  Li5  1  0.50984500  0.46814400  0.32233700  1
  Li  Li6  1  0.49373900  0.52994100  0.67647100  1
  Li  Li7  1  0.01304300  0.52561200  0.17613000  1
  Fe  Fe8  1  0.13556300  0.32643800  0.49810100  1
  Fe  Fe9  1  0.87255600  0.67108500  0.49966000  1
  Fe  Fe10  1  0.36989900  0.32953100  0.99356100  1
  Fe  Fe11  1  0.63473900  0.67418600  0.00533300  1
  S  S12  1  0.26540400  0.21299800  0.74015800  1
  S  S13  1  0.23200700  0.21392200  0.24037800  1
  S  S14  1  0.76551900  0.78582900  0.75976000  1
  S  S15  1  0.72984800  0.78746800  0.26081300  1
  S  S16  1  0.74063200  0.31951700  0.00533000  1
  S  S17  1  0.75833100  0.32044500  0.50201100  1
  S  S18  1  0.24158700  0.67994100  0.49912900  1
  S  S19  1  0.25696000  0.67960500  0.99621500  1
loop_
 _atom_site_moment_label
 _atom_site_moment_crystalaxis_x
 _atom_site_moment_crystalaxis_y
 _atom_site_moment_crystalaxis_z
  Li0  0.00000484  0.00000887  -0.00099971
  Li1  -0.00001452  -0.00002662  0.00299912
  Li2  -0.00000484  -0.00000887  0.00099971
  Li3  0.00001452  0.00002662  -0.00299912
  Li4  -0.00000484  -0.00000887  0.00099971
  Li5  0.00000968  0.00001775  -0.00199941
  Li6  0.00000968  0.00001775  -0.00199941
  Li7  -0.00000968  -0.00001775  0.00199941
  Fe8  0.01736815  0.03183902  -3.58694566
  Fe9  0.01719388  0.03151957  -3.55095624
  Fe10  -0.01720357  -0.03153732  3.55295565
  Fe11  -0.01736331  -0.03183015  3.58594596
  S12  0.00000968  0.00001775  -0.00199941
  S13  0.00008229  0.00015085  -0.01699500
  S14  -0.00003388  -0.00006212  0.00699794
  S15  -0.00006293  -0.00011536  0.01299618
  S16  -0.00031948  -0.00058567  0.06598061
  S17  0.00024203  0.00044369  -0.04998531
  S18  0.00032916  0.00060342  -0.06798002
  S19  -0.00024203  -0.00044369  0.04998531
