# generated using pymatgen
data_Li2CuS2
_symmetry_space_group_name_H-M   'P 1'
_cell_length_a   4.31897488
_cell_length_b   11.84727164
_cell_length_c   6.86025834
_cell_angle_alpha   83.75175776
_cell_angle_beta   76.06781657
_cell_angle_gamma   97.07097041
_symmetry_Int_Tables_number   1
_chemical_formula_structural   Li2CuS2
_chemical_formula_sum   'Li8 Cu4 S8'
_cell_volume   334.59589448
_cell_formula_units_Z   4
loop_
 _symmetry_equiv_pos_site_id
 _symmetry_equiv_pos_as_xyz
  1  'x, y, z'
loop_
 _atom_site_type_symbol
 _atom_site_label
 _atom_site_symmetry_multiplicity
 _atom_site_fract_x
 _atom_site_fract_y
 _atom_site_fract_z
 _atom_site_occupancy
  Li  Li0  1  0.17447500  0.74730800  0.90939100  1
  Li  Li1  1  0.67503700  0.49606700  0.15806300  1
  Li  Li2  1  0.67503100  0.99606800  0.65806200  1
  Li  Li3  1  0.17448300  0.24731000  0.40938100  1
  Li  Li4  1  0.82488100  0.75396400  0.59187700  1
  Li  Li5  1  0.32569000  0.50263600  0.84067800  1
  Li  Li6  1  0.32567200  0.00263500  0.34068200  1
  Li  Li7  1  0.82488200  0.25396300  0.09188100  1
  Cu  Cu8  1  0.49831300  0.74891600  0.25116600  1
  Cu  Cu9  1  0.00162800  0.50108700  0.49884000  1
  Cu  Cu10  1  0.00161400  0.00108900  0.99883100  1
  Cu  Cu11  1  0.49831200  0.24891700  0.75116300  1
  S  S12  1  0.29121200  0.65971200  0.58701200  1
  S  S13  1  0.79139700  0.40959200  0.83543500  1
  S  S14  1  0.79137000  0.90959100  0.33543300  1
  S  S15  1  0.29121500  0.15971000  0.08701400  1
  S  S16  1  0.70878100  0.84038600  0.91451400  1
  S  S17  1  0.20861100  0.59032600  0.16303800  1
  S  S18  1  0.20860200  0.09032700  0.66302500  1
  S  S19  1  0.70879400  0.34039500  0.41451400  1
loop_
 _atom_site_moment_label
 _atom_site_moment_crystalaxis_x
 _atom_site_moment_crystalaxis_y
 _atom_site_moment_crystalaxis_z
  Li0  0.00035284  -0.00047587  -0.00081342
  Li3  -0.00035284  0.00047587  0.00081342
  Li5  0.00035284  -0.00047587  -0.00081342
  Li6  -0.00035284  0.00047587  0.00081342
  Cu8  0.15877926  -0.21414349  -0.36604045
  Cu9  0.15877926  -0.21414349  -0.36604045
  Cu10  -0.15877926  0.21414349  0.36604045
  Cu11  -0.15877926  0.21414349  0.36604045
  S12  0.04904515  -0.06614654  -0.11306583
  S13  0.00035284  -0.00047587  -0.00081342
  S14  -0.00035284  0.00047587  0.00081342
  S15  -0.04904515  0.06614654  0.11306583
  S16  0.00035284  -0.00047587  -0.00081342
  S17  0.04869231  -0.06567067  -0.11225240
  S18  -0.04869231  0.06567067  0.11225240
  S19  -0.00035284  0.00047587  0.00081342
