# generated using pymatgen
data_Li5FeS4
_symmetry_space_group_name_H-M   'P 1'
_cell_length_a   5.84976100
_cell_length_b   11.17337970
_cell_length_c   11.17768551
_cell_angle_alpha   88.95770097
_cell_angle_beta   89.99989982
_cell_angle_gamma   89.99989980
_symmetry_Int_Tables_number   1
_chemical_formula_structural   Li5FeS4
_chemical_formula_sum   'Li20 Fe4 S16'
_cell_volume   730.47053339
_cell_formula_units_Z   4
loop_
 _symmetry_equiv_pos_site_id
 _symmetry_equiv_pos_as_xyz
  1  'x, y, z'
loop_
 _atom_site_type_symbol
 _atom_site_label
 _atom_site_symmetry_multiplicity
 _atom_site_fract_x
 _atom_site_fract_y
 _atom_site_fract_z
 _atom_site_occupancy
  Li  Li0  1  0.79559300  0.25000200  0.75000000  1
  Li  Li1  1  0.79559400  0.74999900  0.25000100  1
  Li  Li2  1  0.20440800  0.24999900  0.25000100  1
  Li  Li3  1  0.20440700  0.75000000  0.74999900  1
  Li  Li4  1  0.25322800  0.77269100  0.01526200  1
  Li  Li5  1  0.25322900  0.27268800  0.51526300  1
  Li  Li6  1  0.25325400  0.51526500  0.27267700  1
  Li  Li7  1  0.25325300  0.01526400  0.77267200  1
  Li  Li8  1  0.25325300  0.48473400  0.72732300  1
  Li  Li9  1  0.25325100  0.98473500  0.22732800  1
  Li  Li10  1  0.25322900  0.22730800  0.98473700  1
  Li  Li11  1  0.25322900  0.72731100  0.48473700  1
  Li  Li12  1  0.74674700  0.51526400  0.77267300  1
  Li  Li13  1  0.74674500  0.01526400  0.27267700  1
  Li  Li14  1  0.74677100  0.27269200  0.01526300  1
  Li  Li15  1  0.74677200  0.77268800  0.51526300  1
  Li  Li16  1  0.74677000  0.72730700  0.98473600  1
  Li  Li17  1  0.74677100  0.22731200  0.48473700  1
  Li  Li18  1  0.74674900  0.48473500  0.22732800  1
  Li  Li19  1  0.74674300  0.98473500  0.72732300  1
  Fe  Fe20  1  0.77162700  0.50000000  0.50000000  1
  Fe  Fe21  1  0.22837500  0.99999900  0.50000000  1
  Fe  Fe22  1  0.77162300  0.99999900  0.00000000  1
  Fe  Fe23  1  0.22837700  0.50000000  0.00000000  1
  S  S24  1  0.98570100  0.37915800  0.37908400  1
  S  S25  1  0.98571600  0.87914300  0.87908200  1
  S  S26  1  0.98571500  0.12085600  0.12091800  1
  S  S27  1  0.98569500  0.62084300  0.62091500  1
  S  S28  1  0.01428700  0.37914400  0.87908300  1
  S  S29  1  0.01430100  0.87916000  0.37908400  1
  S  S30  1  0.01428400  0.62085500  0.12091800  1
  S  S31  1  0.01430700  0.12084100  0.62091500  1
  S  S32  1  0.55602500  0.37684100  0.62323800  1
  S  S33  1  0.55600000  0.87682500  0.12324600  1
  S  S34  1  0.55600200  0.12317400  0.87675300  1
  S  S35  1  0.55602800  0.62315800  0.37676200  1
  S  S36  1  0.44399600  0.62317500  0.87675500  1
  S  S37  1  0.44397400  0.12315800  0.37676200  1
  S  S38  1  0.44399600  0.37682600  0.12324600  1
  S  S39  1  0.44397100  0.87684100  0.62323900  1
loop_
 _atom_site_moment_label
 _atom_site_moment_crystalaxis_x
 _atom_site_moment_crystalaxis_y
 _atom_site_moment_crystalaxis_z
  Li4  0.00000000  0.00140153  0.00140152
  Li5  0.00000000  -0.00140153  -0.00140152
  Li6  0.00000000  -0.00140153  -0.00140152
  Li7  0.00000000  0.00140153  0.00140152
  Li8  0.00000000  -0.00140153  -0.00140152
  Li9  0.00000000  0.00140153  0.00140152
  Li10  0.00000000  0.00140153  0.00140152
  Li11  0.00000000  -0.00140153  -0.00140152
  Li12  0.00000000  0.00140153  0.00140152
  Li13  0.00000000  -0.00140153  -0.00140152
  Li14  0.00000000  0.00140153  0.00140152
  Li15  0.00000000  -0.00140153  -0.00140152
  Li16  0.00000000  0.00140153  0.00140152
  Li17  0.00000000  -0.00140153  -0.00140152
  Li18  0.00000000  0.00140153  0.00140152
  Li19  0.00000000  -0.00140153  -0.00140152
  Fe20  0.00000493  -2.75680608  -2.75678843
  Fe21  0.00000493  -2.75680608  -2.75678843
  Fe22  -0.00000493  2.75680608  2.75678843
  Fe23  -0.00000493  2.75680608  2.75678843
  S24  0.00000015  -0.08339093  -0.08339040
  S25  -0.00000015  0.08339093  0.08339040
  S26  -0.00000015  0.08339093  0.08339040
  S27  0.00000015  -0.08339093  -0.08339040
  S28  -0.00000015  0.08339093  0.08339040
  S29  0.00000015  -0.08339093  -0.08339040
  S30  -0.00000015  0.08339093  0.08339040
  S31  0.00000015  -0.08339093  -0.08339040
  S32  0.00000015  -0.08269017  -0.08268964
  S33  -0.00000015  0.08269017  0.08268964
  S34  -0.00000015  0.08269017  0.08268964
  S35  0.00000015  -0.08269017  -0.08268964
  S36  -0.00000015  0.08269017  0.08268964
  S37  0.00000015  -0.08269017  -0.08268964
  S38  -0.00000015  0.08269017  0.08268964
  S39  0.00000015  -0.08269017  -0.08268964
