# generated using pymatgen
data_RbFeSe2
_symmetry_space_group_name_H-M   'P 1'
_cell_length_a   5.93080495
_cell_length_b   7.26988467
_cell_length_c   7.26647496
_cell_angle_alpha   116.04688635
_cell_angle_beta   101.65693161
_cell_angle_gamma   101.68329986
_symmetry_Int_Tables_number   1
_chemical_formula_structural   RbFeSe2
_chemical_formula_sum   'Rb2 Fe2 Se4'
_cell_volume   260.14004849
_cell_formula_units_Z   2
loop_
 _symmetry_equiv_pos_site_id
 _symmetry_equiv_pos_as_xyz
  1  'x, y, z'
loop_
 _atom_site_type_symbol
 _atom_site_label
 _atom_site_symmetry_multiplicity
 _atom_site_fract_x
 _atom_site_fract_y
 _atom_site_fract_z
 _atom_site_occupancy
  Rb  Rb0  1  0.74998800  0.85960100  0.14040500  1
  Rb  Rb1  1  0.25001200  0.14039900  0.85959500  1
  Fe  Fe2  1  0.24998800  0.50211100  0.49781800  1
  Fe  Fe3  1  0.75001200  0.49788900  0.50218300  1
  Se  Se4  1  0.90154400  0.41839000  0.20027200  1
  Se  Se5  1  0.59854700  0.79963800  0.58163700  1
  Se  Se6  1  0.09845600  0.58161100  0.79972800  1
  Se  Se7  1  0.40145300  0.20036100  0.41836200  1
loop_
 _atom_site_moment_label
 _atom_site_moment_crystalaxis_x
 _atom_site_moment_crystalaxis_y
 _atom_site_moment_crystalaxis_z
  Rb0  -0.00000636  0.00000367  -0.00099964
  Rb1  0.00000636  -0.00000367  0.00099964
  Fe2  -0.02392863  0.01378746  -3.75866165
  Fe3  0.02392863  -0.01378746  3.75866165
  Se4  0.00003182  -0.00001833  0.00499822
  Se5  0.00003182  -0.00001833  0.00499822
  Se6  -0.00003182  0.00001833  -0.00499822
  Se7  -0.00003182  0.00001833  -0.00499822
