# generated using pymatgen
data_Li3CrS4
_symmetry_space_group_name_H-M   'P 1'
_cell_length_a   5.95050700
_cell_length_b   5.95046000
_cell_length_c   11.89259400
_cell_angle_alpha   90.00003853
_cell_angle_beta   89.99996147
_cell_angle_gamma   90.00001926
_symmetry_Int_Tables_number   1
_chemical_formula_structural   Li3CrS4
_chemical_formula_sum   'Li6 Cr2 S8'
_cell_volume   421.09598768
_cell_formula_units_Z   2
loop_
 _symmetry_equiv_pos_site_id
 _symmetry_equiv_pos_as_xyz
  1  'x, y, z'
loop_
 _atom_site_type_symbol
 _atom_site_label
 _atom_site_symmetry_multiplicity
 _atom_site_fract_x
 _atom_site_fract_y
 _atom_site_fract_z
 _atom_site_occupancy
  Li  Li0  1  0.00000000  0.00000000  0.24985100  1
  Li  Li1  1  0.00000000  0.00000000  0.75015000  1
  Li  Li2  1  0.00000000  0.50000000  0.00000000  1
  Li  Li3  1  0.00000000  0.50000000  0.50000000  1
  Li  Li4  1  0.50000000  0.00000000  0.00000000  1
  Li  Li5  1  0.50000000  0.00000000  0.50000000  1
  Cr  Cr6  1  0.00000000  0.00000000  0.50000000  1
  Cr  Cr7  1  0.00000000  0.00000000  0.00000000  1
  S  S8  1  0.20795100  0.20795200  0.10407800  1
  S  S9  1  0.20747800  0.20747600  0.60365700  1
  S  S10  1  0.20747900  0.79252300  0.39634300  1
  S  S11  1  0.20795200  0.79204800  0.89592300  1
  S  S12  1  0.79252200  0.20747700  0.39634400  1
  S  S13  1  0.79204900  0.20795200  0.89592300  1
  S  S14  1  0.79204800  0.79204800  0.10407800  1
  S  S15  1  0.79252200  0.79252300  0.60365700  1
loop_
 _atom_site_moment_label
 _atom_site_moment_crystalaxis_x
 _atom_site_moment_crystalaxis_y
 _atom_site_moment_crystalaxis_z
  Li1  0.00000000  0.00000000  -0.00200000
  Li2  0.00000000  0.00000000  -0.00700000
  Li3  0.00000000  0.00000000  -0.00200000
  Li4  0.00000000  0.00000000  -0.00800000
  Li5  0.00000000  0.00000000  -0.00200000
  Cr6  0.00000099  -0.00000099  -2.93300000
  Cr7  -0.00000038  0.00000038  1.13100000
  S8  0.00000002  -0.00000002  -0.06500000
  S9  0.00000005  -0.00000005  -0.14900000
  S10  0.00000005  -0.00000005  -0.15200000
  S11  0.00000003  -0.00000003  -0.08700000
  S12  0.00000005  -0.00000005  -0.15100000
  S13  0.00000003  -0.00000003  -0.08700000
  S14  0.00000002  -0.00000002  -0.06500000
  S15  0.00000005  -0.00000005  -0.14900000
