# generated using pymatgen
data_Li2Fe2S3
_symmetry_space_group_name_H-M   'P 1'
_cell_length_a   6.38487161
_cell_length_b   6.48708801
_cell_length_c   7.20800077
_cell_angle_alpha   89.99754818
_cell_angle_beta   115.19224546
_cell_angle_gamma   89.99540117
_symmetry_Int_Tables_number   1
_chemical_formula_structural   Li2Fe2S3
_chemical_formula_sum   'Li4 Fe4 S6'
_cell_volume   270.15313435
_cell_formula_units_Z   2
loop_
 _symmetry_equiv_pos_site_id
 _symmetry_equiv_pos_as_xyz
  1  'x, y, z'
loop_
 _atom_site_type_symbol
 _atom_site_label
 _atom_site_symmetry_multiplicity
 _atom_site_fract_x
 _atom_site_fract_y
 _atom_site_fract_z
 _atom_site_occupancy
  Li  Li0  1  0.77739000  0.38320100  0.36538400  1
  Li  Li1  1  0.72257700  0.88319000  0.63462600  1
  Li  Li2  1  0.27741400  0.11678700  0.36539100  1
  Li  Li3  1  0.22259200  0.61679500  0.63462800  1
  Fe  Fe4  1  0.34146400  0.15614300  0.97432500  1
  Fe  Fe5  1  0.84144500  0.34393300  0.97438900  1
  Fe  Fe6  1  0.15846500  0.65613600  0.02565400  1
  Fe  Fe7  1  0.65854900  0.84389300  0.02568700  1
  S  S8  1  0.50005200  0.49996300  0.99997000  1
  S  S9  1  0.00002400  0.00002900  0.99997900  1
  S  S10  1  0.62992000  0.02829700  0.29866700  1
  S  S11  1  0.87014500  0.52824600  0.70132000  1
  S  S12  1  0.12989000  0.47171100  0.29864900  1
  S  S13  1  0.37007300  0.97167500  0.70133400  1
loop_
 _atom_site_moment_label
 _atom_site_moment_crystalaxis_x
 _atom_site_moment_crystalaxis_y
 _atom_site_moment_crystalaxis_z
  Li0  0.00004453  -0.00000004  0.00201855
  Li1  -0.00004453  0.00000004  -0.00201855
  Li2  0.00004453  -0.00000004  0.00201855
  Li3  -0.00004453  0.00000004  -0.00201855
  Fe4  -0.07934457  0.00008008  -3.59705030
  Fe5  -0.07934457  0.00008008  -3.59705030
  Fe6  0.07934457  -0.00008008  3.59705030
  Fe7  0.07934457  -0.00008008  3.59705030
  S10  -0.00011131  0.00000011  -0.00504637
  S11  0.00011131  -0.00000011  0.00504637
  S12  -0.00011131  0.00000011  -0.00504637
  S13  0.00011131  -0.00000011  0.00504637
