# generated using pymatgen
data_Li2CrS4
_symmetry_space_group_name_H-M   'P 1'
_cell_length_a   6.01551296
_cell_length_b   8.39404033
_cell_length_c   10.82663456
_cell_angle_alpha   89.33460798
_cell_angle_beta   105.01015964
_cell_angle_gamma   109.65901259
_symmetry_Int_Tables_number   1
_chemical_formula_structural   Li2CrS4
_chemical_formula_sum   'Li8 Cr4 S16'
_cell_volume   495.53714044
_cell_formula_units_Z   4
loop_
 _symmetry_equiv_pos_site_id
 _symmetry_equiv_pos_as_xyz
  1  'x, y, z'
loop_
 _atom_site_type_symbol
 _atom_site_label
 _atom_site_symmetry_multiplicity
 _atom_site_fract_x
 _atom_site_fract_y
 _atom_site_fract_z
 _atom_site_occupancy
  Li  Li0  1  0.25595300  0.13175100  0.28202100  1
  Li  Li1  1  0.26705600  0.89598900  0.53520400  1
  Li  Li2  1  0.25594300  0.63174000  0.78202000  1
  Li  Li3  1  0.26707000  0.39599600  0.03519100  1
  Li  Li4  1  0.73293000  0.35400400  0.21480400  1
  Li  Li5  1  0.74406400  0.11826400  0.46798100  1
  Li  Li6  1  0.73294900  0.85401200  0.71480300  1
  Li  Li7  1  0.74404500  0.61824500  0.96798100  1
  Cr  Cr8  1  0.50071600  0.50480200  0.49651800  1
  Cr  Cr9  1  0.49928000  0.24520000  0.75347800  1
  Cr  Cr10  1  0.50073000  0.00480700  0.99651600  1
  Cr  Cr11  1  0.49927200  0.74518900  0.25348600  1
  S  S12  1  0.57450600  0.04392400  0.22741600  1
  S  S13  1  0.57629600  0.80489400  0.48079700  1
  S  S14  1  0.57446500  0.54389600  0.72738700  1
  S  S15  1  0.57630500  0.30493300  0.98076900  1
  S  S16  1  0.42369300  0.44507000  0.26923400  1
  S  S17  1  0.42553300  0.20610400  0.52260800  1
  S  S18  1  0.42370500  0.94509700  0.76920200  1
  S  S19  1  0.42549500  0.70607700  0.02258400  1
  S  S20  1  0.94822100  0.09523800  0.02839100  1
  S  S21  1  0.94774500  0.80929700  0.31381200  1
  S  S22  1  0.94819400  0.59520600  0.52838700  1
  S  S23  1  0.94774800  0.30929200  0.81378100  1
  S  S24  1  0.05224700  0.44070500  0.43621800  1
  S  S25  1  0.05180100  0.15479700  0.72160800  1
  S  S26  1  0.05225500  0.94070300  0.93619400  1
  S  S27  1  0.05178400  0.65476300  0.22160500  1
loop_
 _atom_site_moment_label
 _atom_site_moment_crystalaxis_x
 _atom_site_moment_crystalaxis_y
 _atom_site_moment_crystalaxis_z
  Li0  -0.00000608  0.00091546  0.00038567
  Li2  0.00000608  -0.00091546  -0.00038567
  Li5  0.00000608  -0.00091546  -0.00038567
  Li7  -0.00000608  0.00091546  0.00038567
  Cr8  0.01833285  -2.75918456  -1.16240887
  Cr9  0.01833893  -2.76010001  -1.16279454
  Cr10  -0.01833893  2.76010001  1.16279454
  Cr11  -0.01833893  2.76010001  1.16279454
  S12  0.00032846  -0.04943463  -0.02082617
  S14  -0.00032846  0.04943463  0.02082617
  S15  -0.00000608  0.00091546  0.00038567
  S16  -0.00000608  0.00091546  0.00038567
  S17  -0.00032846  0.04943463  0.02082617
  S18  0.00000608  -0.00091546  -0.00038567
  S19  0.00032846  -0.04943463  -0.02082617
  S20  0.00035279  -0.05309645  -0.02236885
  S21  0.00033454  -0.05035008  -0.02121184
  S22  -0.00035279  0.05309645  0.02236885
  S23  -0.00034062  0.05126554  0.02159751
  S24  -0.00033454  0.05035008  0.02121184
  S25  -0.00035887  0.05401191  0.02275452
  S26  0.00033454  -0.05035008  -0.02121184
  S27  0.00035887  -0.05401191  -0.02275452
