# generated using pymatgen
data_SbRu
_symmetry_space_group_name_H-M   'P 1'
_cell_length_a   3.61454601
_cell_length_b   6.15201401
_cell_length_c   6.73940700
_cell_angle_alpha   89.99737058
_cell_angle_beta   90.00347693
_cell_angle_gamma   90.00795216
_symmetry_Int_Tables_number   1
_chemical_formula_structural   SbRu
_chemical_formula_sum   'Sb4 Ru4'
_cell_volume   149.86242407
_cell_formula_units_Z   4
loop_
 _symmetry_equiv_pos_site_id
 _symmetry_equiv_pos_as_xyz
  1  'x, y, z'
loop_
 _atom_site_type_symbol
 _atom_site_label
 _atom_site_symmetry_multiplicity
 _atom_site_fract_x
 _atom_site_fract_y
 _atom_site_fract_z
 _atom_site_occupancy
  Sb  Sb0  1  0.74997900  0.80226500  0.57211100  1
  Sb  Sb1  1  0.25002100  0.19774900  0.42788900  1
  Sb  Sb2  1  0.75002300  0.30224700  0.92785600  1
  Sb  Sb3  1  0.24997900  0.69775100  0.07213500  1
  Ru  Ru4  1  0.25008400  0.00289100  0.79707300  1
  Ru  Ru5  1  0.75002000  0.49711400  0.29705700  1
  Ru  Ru6  1  0.74991600  0.99710000  0.20293700  1
  Ru  Ru7  1  0.24997800  0.50288200  0.70294100  1
loop_
 _atom_site_moment_label
 _atom_site_moment_crystalaxis_x
 _atom_site_moment_crystalaxis_y
 _atom_site_moment_crystalaxis_z
  Sb0  0.00000009  -0.00000007  0.00300000
  Sb1  -0.00000009  0.00000007  -0.00300000
  Sb2  -0.00000009  0.00000007  -0.00300000
  Sb3  0.00000009  -0.00000007  0.00300000
  Ru4  -0.00002059  0.00001600  -0.68700000
  Ru5  -0.00002062  0.00001603  -0.68800000
  Ru6  0.00002059  -0.00001600  0.68700000
  Ru7  0.00002062  -0.00001603  0.68800000
