# generated using pymatgen
data_LiFeS2
_symmetry_space_group_name_H-M   'P 1'
_cell_length_a   6.14082266
_cell_length_b   7.07604349
_cell_length_c   7.07600168
_cell_angle_alpha   60.76402252
_cell_angle_beta   89.95540528
_cell_angle_gamma   89.95458533
_symmetry_Int_Tables_number   1
_chemical_formula_structural   LiFeS2
_chemical_formula_sum   'Li4 Fe4 S8'
_cell_volume   268.30437346
_cell_formula_units_Z   4
loop_
 _symmetry_equiv_pos_site_id
 _symmetry_equiv_pos_as_xyz
  1  'x, y, z'
loop_
 _atom_site_type_symbol
 _atom_site_label
 _atom_site_symmetry_multiplicity
 _atom_site_fract_x
 _atom_site_fract_y
 _atom_site_fract_z
 _atom_site_occupancy
  Li  Li0  1  0.49999700  0.49984500  0.00015400  1
  Li  Li1  1  0.50000000  0.99984400  0.50015400  1
  Li  Li2  1  0.00000100  0.25015700  0.24984700  1
  Li  Li3  1  0.00000300  0.75015600  0.74984500  1
  Fe  Fe4  1  0.50000200  0.74897400  0.25101600  1
  Fe  Fe5  1  0.99999400  0.50101600  0.49898800  1
  Fe  Fe6  1  0.50000300  0.24897700  0.75101800  1
  Fe  Fe7  1  0.99999500  0.00101600  0.99898900  1
  S  S8  1  0.33354200  0.88518900  0.88568000  1
  S  S9  1  0.33354600  0.38518900  0.38568100  1
  S  S10  1  0.83355100  0.63569400  0.13519500  1
  S  S11  1  0.83355000  0.13569400  0.63519700  1
  S  S12  1  0.16645000  0.36480100  0.86430400  1
  S  S13  1  0.16644800  0.86480200  0.36430400  1
  S  S14  1  0.66645800  0.11432100  0.11481200  1
  S  S15  1  0.66645800  0.61432500  0.61481700  1
loop_
 _atom_site_moment_label
 _atom_site_moment_crystalaxis_x
 _atom_site_moment_crystalaxis_y
 _atom_site_moment_crystalaxis_z
  Fe4  0.00177191  -2.29634699  -2.29635906
  Fe5  0.00177191  -2.29634699  -2.29635906
  Fe6  -0.00177191  2.29634699  2.29635906
  Fe7  -0.00177191  2.29634699  2.29635906
  S8  -0.00003444  0.04462865  0.04462889
  S9  0.00003444  -0.04462865  -0.04462889
  S10  0.00003444  -0.04462865  -0.04462889
  S11  -0.00003444  0.04462865  0.04462889
  S12  -0.00003444  0.04462865  0.04462889
  S13  0.00003444  -0.04462865  -0.04462889
  S14  -0.00003444  0.04462865  0.04462889
  S15  0.00003444  -0.04462865  -0.04462889
