# generated using pymatgen
data_Li(NiS)2
_symmetry_space_group_name_H-M   'P 1'
_cell_length_a   3.66807551
_cell_length_b   6.25851300
_cell_length_c   6.96593188
_cell_angle_alpha   89.99691998
_cell_angle_beta   89.98020668
_cell_angle_gamma   90.00321937
_symmetry_Int_Tables_number   1
_chemical_formula_structural   Li(NiS)2
_chemical_formula_sum   'Li2 Ni4 S4'
_cell_volume   159.91478625
_cell_formula_units_Z   2
loop_
 _symmetry_equiv_pos_site_id
 _symmetry_equiv_pos_as_xyz
  1  'x, y, z'
loop_
 _atom_site_type_symbol
 _atom_site_label
 _atom_site_symmetry_multiplicity
 _atom_site_fract_x
 _atom_site_fract_y
 _atom_site_fract_z
 _atom_site_occupancy
  Li  Li0  1  0.50000600  0.50000300  0.99999100  1
  Li  Li1  1  0.99999700  0.00000000  0.49998500  1
  Ni  Ni2  1  0.00290300  0.13992200  0.85976200  1
  Ni  Ni3  1  0.99711200  0.86006900  0.14024900  1
  Ni  Ni4  1  0.50306100  0.36002900  0.35980800  1
  Ni  Ni5  1  0.49692400  0.63996900  0.64025200  1
  S  S6  1  0.49738200  0.72934300  0.31627800  1
  S  S7  1  0.99731000  0.77065000  0.81627400  1
  S  S8  1  0.00268700  0.22936200  0.18370700  1
  S  S9  1  0.50261600  0.27065500  0.68369500  1
loop_
 _atom_site_moment_label
 _atom_site_moment_crystalaxis_x
 _atom_site_moment_crystalaxis_y
 _atom_site_moment_crystalaxis_z
  Ni2  -0.58752838  -0.00004600  1.12274448
  Ni3  -0.58752838  -0.00004600  1.12274448
  Ni4  0.58799209  0.00004603  -1.12363063
  Ni5  0.58752838  0.00004600  -1.12274448
  S6  0.01205662  0.00000094  -0.02303974
  S7  -0.01205662  -0.00000094  0.02303974
  S8  -0.01205662  -0.00000094  0.02303974
  S9  0.01205662  0.00000094  -0.02303974
