# generated using pymatgen
data_Sr(CoGe)2
_symmetry_space_group_name_H-M   'P 1'
_cell_length_a   5.87512486
_cell_length_b   5.87293636
_cell_length_c   6.08715015
_cell_angle_alpha   61.15980370
_cell_angle_beta   89.99998298
_cell_angle_gamma   89.99999681
_symmetry_Int_Tables_number   1
_chemical_formula_structural   Sr(CoGe)2
_chemical_formula_sum   'Sr2 Co4 Ge4'
_cell_volume   183.98181246
_cell_formula_units_Z   2
loop_
 _symmetry_equiv_pos_site_id
 _symmetry_equiv_pos_as_xyz
  1  'x, y, z'
loop_
 _atom_site_type_symbol
 _atom_site_label
 _atom_site_symmetry_multiplicity
 _atom_site_fract_x
 _atom_site_fract_y
 _atom_site_fract_z
 _atom_site_occupancy
  Sr  Sr0  1  0.49994500  0.50000000  0.00000000  1
  Sr  Sr1  1  0.00005400  0.00000000  0.00000000  1
  Co  Co2  1  0.25000800  0.00000100  0.50000000  1
  Co  Co3  1  0.24998600  0.49999800  0.50000100  1
  Co  Co4  1  0.75000600  0.49999800  0.50000100  1
  Co  Co5  1  0.74999400  0.00000200  0.50000100  1
  Ge  Ge6  1  0.99992400  0.35958600  0.28050900  1
  Ge  Ge7  1  0.50007800  0.85989800  0.28051600  1
  Ge  Ge8  1  0.50007900  0.14010400  0.71948000  1
  Ge  Ge9  1  0.99992500  0.64041400  0.71949200  1
loop_
 _atom_site_moment_label
 _atom_site_moment_crystalaxis_x
 _atom_site_moment_crystalaxis_y
 _atom_site_moment_crystalaxis_z
  Co2  -0.62308510  0.66075068  -1.36975460
  Co3  -0.62446769  0.66221685  -1.37279400
  Co4  0.62308510  -0.66075068  1.36975460
  Co5  0.62170252  -0.65928452  1.36671521
