# generated using pymatgen
data_LiNiS2
_symmetry_space_group_name_H-M   'P 1'
_cell_length_a   3.48869100
_cell_length_b   3.49120640
_cell_length_c   5.82982578
_cell_angle_alpha   89.90265423
_cell_angle_beta   89.99957022
_cell_angle_gamma   119.97610776
_symmetry_Int_Tables_number   1
_chemical_formula_structural   LiNiS2
_chemical_formula_sum   'Li1 Ni1 S2'
_cell_volume   61.50747606
_cell_formula_units_Z   1
loop_
 _symmetry_equiv_pos_site_id
 _symmetry_equiv_pos_as_xyz
  1  'x, y, z'
loop_
 _atom_site_type_symbol
 _atom_site_label
 _atom_site_symmetry_multiplicity
 _atom_site_fract_x
 _atom_site_fract_y
 _atom_site_fract_z
 _atom_site_occupancy
  Li  Li0  1  0.49999900  0.50000000  0.50000000  1
  Ni  Ni1  1  0.50000100  0.50000200  0.99999900  1
  S  S2  1  0.16779200  0.83558400  0.77686500  1
  S  S3  1  0.83220800  0.16441500  0.22313500  1
loop_
 _atom_site_moment_label
 _atom_site_moment_crystalaxis_x
 _atom_site_moment_crystalaxis_y
 _atom_site_moment_crystalaxis_z
  Li0  -0.00230718  -0.00461769  0.00000092
  Ni1  -0.79828459  -1.59772171  0.00031875
  S2  0.08017454  0.16046482  -0.00003201
  S3  0.08017454  0.16046482  -0.00003201
