# generated using pymatgen
data_FeSe2
_symmetry_space_group_name_H-M   'P 1'
_cell_length_a   4.00692100
_cell_length_b   5.18148200
_cell_length_c   6.33933200
_cell_angle_alpha   89.99759474
_cell_angle_beta   89.99918386
_cell_angle_gamma   89.99881718
_symmetry_Int_Tables_number   1
_chemical_formula_structural   FeSe2
_chemical_formula_sum   'Fe2 Se4'
_cell_volume   131.61587354
_cell_formula_units_Z   2
loop_
 _symmetry_equiv_pos_site_id
 _symmetry_equiv_pos_as_xyz
  1  'x, y, z'
loop_
 _atom_site_type_symbol
 _atom_site_label
 _atom_site_symmetry_multiplicity
 _atom_site_fract_x
 _atom_site_fract_y
 _atom_site_fract_z
 _atom_site_occupancy
  Fe  Fe0  1  0.50000000  0.50000000  0.50000000  1
  Fe  Fe1  1  0.00000000  0.00000000  0.00000000  1
  Se  Se2  1  0.00001700  0.18483800  0.38409600  1
  Se  Se3  1  0.99998300  0.81516200  0.61590400  1
  Se  Se4  1  0.49999400  0.68482500  0.11588700  1
  Se  Se5  1  0.50000600  0.31517500  0.88411200  1
loop_
 _atom_site_moment_label
 _atom_site_moment_crystalaxis_x
 _atom_site_moment_crystalaxis_y
 _atom_site_moment_crystalaxis_z
  Fe0  0.00002597  0.00008186  -3.57900000
  Fe1  -0.00002597  -0.00008186  3.57900000
  Se2  0.00000016  0.00000050  -0.02200000
  Se3  0.00000016  0.00000050  -0.02200000
  Se4  -0.00000016  -0.00000050  0.02200000
  Se5  -0.00000016  -0.00000050  0.02200000
