# generated using pymatgen
data_Li2V2S5
_symmetry_space_group_name_H-M   'P 1'
_cell_length_a   6.11301793
_cell_length_b   6.11281914
_cell_length_c   11.10564548
_cell_angle_alpha   97.58601701
_cell_angle_beta   99.01160134
_cell_angle_gamma   118.37137697
_symmetry_Int_Tables_number   1
_chemical_formula_structural   Li2V2S5
_chemical_formula_sum   'Li4 V4 S10'
_cell_volume   350.31564416
_cell_formula_units_Z   2
loop_
 _symmetry_equiv_pos_site_id
 _symmetry_equiv_pos_as_xyz
  1  'x, y, z'
loop_
 _atom_site_type_symbol
 _atom_site_label
 _atom_site_symmetry_multiplicity
 _atom_site_fract_x
 _atom_site_fract_y
 _atom_site_fract_z
 _atom_site_occupancy
  Li  Li0  1  0.74777300  0.18380200  0.18066900  1
  Li  Li1  1  0.49696900  0.43293000  0.68065400  1
  Li  Li2  1  0.50678800  0.57067300  0.31712100  1
  Li  Li3  1  0.24644300  0.81052500  0.81715200  1
  V  V4  1  0.99056500  0.75277300  0.05678800  1
  V  V5  1  0.19084800  0.93470600  0.44564700  1
  V  V6  1  0.80451300  0.06676000  0.55702400  1
  V  V7  1  0.01064500  0.25479500  0.94569300  1
  S  S8  1  0.17480900  0.28870800  0.46342200  1
  S  S9  1  0.67460600  0.28903900  0.96337000  1
  S  S10  1  0.55139300  0.01890600  0.36433600  1
  S  S11  1  0.89910900  0.65614800  0.24809200  1
  S  S12  1  0.16308200  0.18922100  0.13890500  1
  S  S13  1  0.84488000  0.81256100  0.86430500  1
  S  S14  1  0.09198700  0.34953900  0.74813000  1
  S  S15  1  0.44972400  0.97542500  0.63898900  1
  S  S16  1  0.32709400  0.70585100  0.03493400  1
  S  S17  1  0.82877000  0.70763700  0.53477000  1
loop_
 _atom_site_moment_label
 _atom_site_moment_crystalaxis_x
 _atom_site_moment_crystalaxis_y
 _atom_site_moment_crystalaxis_z
  V4  -0.00160702  -0.00265242  1.18739594
  V5  -0.00189515  -0.00312798  1.40028763
  V6  -0.00161243  -0.00266135  1.19139390
  V7  -0.00190597  -0.00314584  1.40828356
  S8  0.00020832  0.00034383  -0.15392170
  S9  0.00020967  0.00034606  -0.15492119
  S10  0.00013527  0.00022327  -0.09994915
  S11  0.00013121  0.00021657  -0.09695068
  S12  0.00012174  0.00020094  -0.08995424
  S13  0.00013662  0.00022550  -0.10094864
  S14  0.00013121  0.00021657  -0.09695068
  S15  0.00012039  0.00019871  -0.08895475
  S16  0.00016233  0.00026792  -0.11993898
  S17  0.00016233  0.00026792  -0.11993898
