# generated using pymatgen
data_Li5FeS4
_symmetry_space_group_name_H-M   'P 1'
_cell_length_a   7.66013274
_cell_length_b   9.30229605
_cell_length_c   10.10176692
_cell_angle_alpha   78.53895744
_cell_angle_beta   83.15035879
_cell_angle_gamma   72.36639191
_symmetry_Int_Tables_number   1
_chemical_formula_structural   Li5FeS4
_chemical_formula_sum   'Li20 Fe4 S16'
_cell_volume   670.97299553
_cell_formula_units_Z   4
loop_
 _symmetry_equiv_pos_site_id
 _symmetry_equiv_pos_as_xyz
  1  'x, y, z'
loop_
 _atom_site_type_symbol
 _atom_site_label
 _atom_site_symmetry_multiplicity
 _atom_site_fract_x
 _atom_site_fract_y
 _atom_site_fract_z
 _atom_site_occupancy
  Li  Li0  1  0.12968700  0.87793600  0.37407900  1
  Li  Li1  1  0.37976600  0.62785500  0.12397800  1
  Li  Li2  1  0.87976700  0.12785200  0.62398500  1
  Li  Li3  1  0.62968600  0.37793500  0.87408000  1
  Li  Li4  1  0.63728900  0.01024700  0.40161700  1
  Li  Li5  1  0.88732200  0.76025500  0.15160800  1
  Li  Li6  1  0.38732900  0.26024900  0.65161300  1
  Li  Li7  1  0.13728500  0.51025000  0.90161900  1
  Li  Li8  1  0.92223800  0.72539500  0.68649000  1
  Li  Li9  1  0.17224600  0.47539600  0.43647000  1
  Li  Li10  1  0.67224600  0.97539500  0.93647100  1
  Li  Li11  1  0.42223100  0.22539900  0.18648600  1
  Li  Li12  1  0.08106300  0.27566400  0.31354000  1
  Li  Li13  1  0.33110900  0.02567500  0.06357700  1
  Li  Li14  1  0.83110600  0.52567700  0.56357500  1
  Li  Li15  1  0.58106800  0.77566400  0.81354300  1
  Li  Li16  1  0.36481900  0.99189000  0.59724500  1
  Li  Li17  1  0.61486400  0.74190300  0.34729200  1
  Li  Li18  1  0.11486300  0.24190500  0.84728800  1
  Li  Li19  1  0.86481800  0.49189100  0.09724500  1
  Fe  Fe20  1  0.37866400  0.62758600  0.62441500  1
  Fe  Fe21  1  0.62911900  0.37710000  0.37403600  1
  Fe  Fe22  1  0.12913400  0.87709400  0.87402900  1
  Fe  Fe23  1  0.87865600  0.12759400  0.12441700  1
  S  S24  1  0.37354100  0.22406800  0.42525700  1
  S  S25  1  0.62348700  0.97411300  0.17532600  1
  S  S26  1  0.12348600  0.47410900  0.67532600  1
  S  S27  1  0.87353900  0.72407200  0.92525700  1
  S  S28  1  0.62715500  0.77634400  0.57460100  1
  S  S29  1  0.87720900  0.52630300  0.32453400  1
  S  S30  1  0.37720900  0.02630400  0.82453500  1
  S  S31  1  0.12715600  0.27634300  0.07459600  1
  S  S32  1  0.12700400  0.87528300  0.62535700  1
  S  S33  1  0.37689700  0.62543600  0.37511800  1
  S  S34  1  0.87689400  0.12543900  0.87511600  1
  S  S35  1  0.62700900  0.37528100  0.12536500  1
  S  S36  1  0.87582900  0.12641900  0.37409400  1
  S  S37  1  0.12588300  0.87624700  0.12433100  1
  S  S38  1  0.62588400  0.37625300  0.62432500  1
  S  S39  1  0.37583600  0.62641300  0.87409100  1
loop_
 _atom_site_moment_label
 _atom_site_moment_crystalaxis_x
 _atom_site_moment_crystalaxis_y
 _atom_site_moment_crystalaxis_z
  Li4  -0.00075033  -0.00030864  -0.00032267
  Li7  0.00075033  0.00030864  0.00032267
  Li8  -0.00075033  -0.00030864  -0.00032267
  Li9  -0.00075033  -0.00030864  -0.00032267
  Li10  0.00075033  0.00030864  0.00032267
  Li11  0.00075033  0.00030864  0.00032267
  Li12  -0.00075033  -0.00030864  -0.00032267
  Li13  0.00075033  0.00030864  0.00032267
  Li14  -0.00075033  -0.00030864  -0.00032267
  Li15  0.00075033  0.00030864  0.00032267
  Li16  -0.00075033  -0.00030864  -0.00032267
  Li19  0.00075033  0.00030864  0.00032267
  Fe20  -2.98482464  -1.22775069  -1.28357420
  Fe21  -2.98482464  -1.22775069  -1.28357420
  Fe22  2.98482464  1.22775069  1.28357420
  Fe23  2.98482464  1.22775069  1.28357420
  S24  -0.05402398  -0.02222173  -0.02323211
  S25  0.05402398  0.02222173  0.02323211
  S26  -0.05402398  -0.02222173  -0.02323211
  S27  0.05402398  0.02222173  0.02323211
  S28  -0.05927631  -0.02438218  -0.02549079
  S29  -0.05927631  -0.02438218  -0.02549079
  S30  0.05927631  0.02438218  0.02549079
  S31  0.05927631  0.02438218  0.02549079
  S32  -0.00150067  -0.00061727  -0.00064534
  S33  -0.11179962  -0.04598664  -0.04807757
  S34  0.11179962  0.04598664  0.04807757
  S35  0.00150067  0.00061727  0.00064534
  S36  -0.00150067  -0.00061727  -0.00064534
  S37  0.11179962  0.04598664  0.04807757
  S38  -0.11179962  -0.04598664  -0.04807757
  S39  0.00150067  0.00061727  0.00064534
