# generated using pymatgen
data_CoTe
_symmetry_space_group_name_H-M   'P 1'
_cell_length_a   4.10687200
_cell_length_b   4.10686109
_cell_length_c   5.21116800
_cell_angle_alpha   89.99924002
_cell_angle_beta   90.00006883
_cell_angle_gamma   120.00026607
_symmetry_Int_Tables_number   1
_chemical_formula_structural   CoTe
_chemical_formula_sum   'Co2 Te2'
_cell_volume   76.11771153
_cell_formula_units_Z   2
loop_
 _symmetry_equiv_pos_site_id
 _symmetry_equiv_pos_as_xyz
  1  'x, y, z'
loop_
 _atom_site_type_symbol
 _atom_site_label
 _atom_site_symmetry_multiplicity
 _atom_site_fract_x
 _atom_site_fract_y
 _atom_site_fract_z
 _atom_site_occupancy
  Co  Co0  1  0.00000000  0.99999900  0.00000000  1
  Co  Co1  1  0.00000000  0.00000100  0.50000000  1
  Te  Te2  1  0.33333300  0.66667000  0.25000900  1
  Te  Te3  1  0.66666700  0.33333000  0.74999100  1
loop_
 _atom_site_moment_label
 _atom_site_moment_crystalaxis_x
 _atom_site_moment_crystalaxis_y
 _atom_site_moment_crystalaxis_z
  Co0  -0.00000985  -0.00000364  1.49400000
  Co1  -0.00000985  -0.00000364  1.49500000
  Te2  0.00000074  0.00000027  -0.11200000
  Te3  0.00000074  0.00000027  -0.11200000
