# generated using pymatgen
data_Li2FeS2
_symmetry_space_group_name_H-M   'P 1'
_cell_length_a   3.95532306
_cell_length_b   6.51769601
_cell_length_c   6.19682496
_cell_angle_alpha   91.03591693
_cell_angle_beta   90.00264408
_cell_angle_gamma   90.01996302
_symmetry_Int_Tables_number   1
_chemical_formula_structural   Li2FeS2
_chemical_formula_sum   'Li4 Fe2 S4'
_cell_volume   159.72550726
_cell_formula_units_Z   2
loop_
 _symmetry_equiv_pos_site_id
 _symmetry_equiv_pos_as_xyz
  1  'x, y, z'
loop_
 _atom_site_type_symbol
 _atom_site_label
 _atom_site_symmetry_multiplicity
 _atom_site_fract_x
 _atom_site_fract_y
 _atom_site_fract_z
 _atom_site_occupancy
  Li  Li0  1  0.99998900  0.32824200  0.63601500  1
  Li  Li1  1  0.50012800  0.82825700  0.63602000  1
  Li  Li2  1  0.49987200  0.17174300  0.36398000  1
  Li  Li3  1  0.00001100  0.67175700  0.36398700  1
  Fe  Fe4  1  0.49999800  0.50000200  0.00000200  1
  Fe  Fe5  1  0.00000100  0.00000000  0.99999700  1
  S  S6  1  0.99989700  0.32716400  0.23099100  1
  S  S7  1  0.50013100  0.82716000  0.23104400  1
  S  S8  1  0.49986900  0.17283800  0.76895600  1
  S  S9  1  0.00010200  0.67283500  0.76900800  1
loop_
 _atom_site_moment_label
 _atom_site_moment_crystalaxis_x
 _atom_site_moment_crystalaxis_y
 _atom_site_moment_crystalaxis_z
  Li0  0.00000011  0.00003579  0.00400049
  Li1  -0.00000011  -0.00003579  -0.00400049
  Li2  -0.00000011  -0.00003579  -0.00400049
  Li3  0.00000011  0.00003579  0.00400049
  Fe4  -0.00009779  -0.03268404  -3.65344473
  Fe5  0.00009779  0.03268404  3.65344473
  S6  -0.00000024  -0.00008052  -0.00900110
  S7  0.00000024  0.00008052  0.00900110
  S8  0.00000024  0.00008052  0.00900110
  S9  -0.00000024  -0.00008052  -0.00900110
