# generated using pymatgen
data_Li5CrS4
_symmetry_space_group_name_H-M   'P 1'
_cell_length_a   3.74331010
_cell_length_b   7.62219292
_cell_length_c   12.26613090
_cell_angle_alpha   82.67690335
_cell_angle_beta   98.77524248
_cell_angle_gamma   104.21388765
_symmetry_Int_Tables_number   1
_chemical_formula_structural   Li5CrS4
_chemical_formula_sum   'Li10 Cr2 S8'
_cell_volume   333.81150129
_cell_formula_units_Z   2
loop_
 _symmetry_equiv_pos_site_id
 _symmetry_equiv_pos_as_xyz
  1  'x, y, z'
loop_
 _atom_site_type_symbol
 _atom_site_label
 _atom_site_symmetry_multiplicity
 _atom_site_fract_x
 _atom_site_fract_y
 _atom_site_fract_z
 _atom_site_occupancy
  Li  Li0  1  0.50000500  0.24999700  0.75000000  1
  Li  Li1  1  0.49999700  0.75000200  0.24999900  1
  Li  Li2  1  0.17755800  0.65882700  0.69632900  1
  Li  Li3  1  0.17755600  0.15882400  0.19632700  1
  Li  Li4  1  0.17756900  0.37390700  0.98125200  1
  Li  Li5  1  0.17757300  0.87391000  0.48125100  1
  Li  Li6  1  0.82242900  0.62609300  0.01874700  1
  Li  Li7  1  0.82242800  0.12609000  0.51874900  1
  Li  Li8  1  0.82243900  0.34117100  0.30367100  1
  Li  Li9  1  0.82244300  0.84117400  0.80367400  1
  Cr  Cr10  1  0.49999800  0.50000100  0.50000000  1
  Cr  Cr11  1  0.50000100  0.00000000  0.00000000  1
  S  S12  1  0.99998500  0.12285300  0.87716400  1
  S  S13  1  0.99999400  0.62286700  0.37715300  1
  S  S14  1  0.00000400  0.37713300  0.62284900  1
  S  S15  1  0.00001000  0.87714300  0.12283600  1
  S  S16  1  0.69847300  0.29769500  0.09920500  1
  S  S17  1  0.69847100  0.79768700  0.59920600  1
  S  S18  1  0.30152600  0.70230500  0.90079500  1
  S  S19  1  0.30154100  0.20231400  0.40079500  1
loop_
 _atom_site_moment_label
 _atom_site_moment_crystalaxis_x
 _atom_site_moment_crystalaxis_y
 _atom_site_moment_crystalaxis_z
  Li2  0.00000012  -0.00050038  -0.00080434
  Li3  -0.00000012  0.00050038  0.00080434
  Li8  0.00000012  -0.00050038  -0.00080434
  Li9  -0.00000012  0.00050038  0.00080434
  Cr10  0.00038982  -1.60172044  -2.57467942
  Cr11  -0.00038982  1.60172044  2.57467942
  S12  0.00000901  -0.03702821  -0.05952086
  S13  -0.00000901  0.03702821  0.05952086
  S14  -0.00000901  0.03702821  0.05952086
  S15  0.00000901  -0.03702821  -0.05952086
  S16  0.00000499  -0.02051563  -0.03297777
  S17  -0.00000499  0.02051563  0.03297777
  S18  0.00000499  -0.02051563  -0.03297777
  S19  -0.00000499  0.02051563  0.03297777
