# generated using pymatgen
data_Li3(FeS2)2
_symmetry_space_group_name_H-M   'P 1'
_cell_length_a   6.58936033
_cell_length_b   7.31604199
_cell_length_c   7.31514036
_cell_angle_alpha   108.85975854
_cell_angle_beta   89.82114430
_cell_angle_gamma   90.18213758
_symmetry_Int_Tables_number   1
_chemical_formula_structural   Li3(FeS2)2
_chemical_formula_sum   'Li6 Fe4 S8'
_cell_volume   333.71327825
_cell_formula_units_Z   2
loop_
 _symmetry_equiv_pos_site_id
 _symmetry_equiv_pos_as_xyz
  1  'x, y, z'
loop_
 _atom_site_type_symbol
 _atom_site_label
 _atom_site_symmetry_multiplicity
 _atom_site_fract_x
 _atom_site_fract_y
 _atom_site_fract_z
 _atom_site_occupancy
  Li  Li0  1  0.75002000  0.39845600  0.39845500  1
  Li  Li1  1  0.24998000  0.60149800  0.60150200  1
  Li  Li2  1  0.05841700  0.75740400  0.99912400  1
  Li  Li3  1  0.55839400  0.00094800  0.24252200  1
  Li  Li4  1  0.44157400  0.99912900  0.75748400  1
  Li  Li5  1  0.94162300  0.24261200  0.00097100  1
  Fe  Fe6  1  0.09325000  0.17766200  0.56742400  1
  Fe  Fe7  1  0.90665900  0.82222000  0.43252500  1
  Fe  Fe8  1  0.59332600  0.43249500  0.82217300  1
  Fe  Fe9  1  0.40676300  0.56745000  0.17770600  1
  S  S10  1  0.92978300  0.46066700  0.74110300  1
  S  S11  1  0.42959200  0.25871600  0.53924000  1
  S  S12  1  0.57022500  0.74111800  0.46074100  1
  S  S13  1  0.07039900  0.53932800  0.25873300  1
  S  S14  1  0.93723700  0.04681000  0.26720100  1
  S  S15  1  0.43717400  0.73280200  0.95334300  1
  S  S16  1  0.56276100  0.26726900  0.04687800  1
  S  S17  1  0.06282400  0.95341600  0.73287400  1
loop_
 _atom_site_moment_label
 _atom_site_moment_crystalaxis_x
 _atom_site_moment_crystalaxis_y
 _atom_site_moment_crystalaxis_z
  Li2  0.00000272  -0.00004280  -0.00101302
  Li3  -0.00000272  0.00004280  0.00101302
  Li4  -0.00000272  0.00004280  0.00101302
  Li5  0.00000272  -0.00004280  -0.00101302
  Fe6  0.01015597  -0.15993079  -3.78564913
  Fe7  0.01014782  -0.15980240  -3.78261007
  Fe8  -0.01014782  0.15980240  3.78261007
  Fe9  -0.01015597  0.15993079  3.78564913
  S10  0.00002446  -0.00038517  -0.00911716
  S11  -0.00002174  0.00034237  0.00810415
  S12  -0.00002718  0.00042797  0.01013018
  S13  0.00002174  -0.00034237  -0.00810415
  S14  0.00041309  -0.00650508  -0.15397877
  S15  -0.00041309  0.00650508  0.15397877
  S16  -0.00041309  0.00650508  0.15397877
  S17  0.00041309  -0.00650508  -0.15397877
