# generated using pymatgen
data_K2MnSe2
_symmetry_space_group_name_H-M   'P 1'
_cell_length_a   6.59282867
_cell_length_b   8.29839243
_cell_length_c   13.17547777
_cell_angle_alpha   81.34905935
_cell_angle_beta   104.48573401
_cell_angle_gamma   113.41031784
_symmetry_Int_Tables_number   1
_chemical_formula_structural   K2MnSe2
_chemical_formula_sum   'K8 Mn4 Se8'
_cell_volume   639.40630995
_cell_formula_units_Z   4
loop_
 _symmetry_equiv_pos_site_id
 _symmetry_equiv_pos_as_xyz
  1  'x, y, z'
loop_
 _atom_site_type_symbol
 _atom_site_label
 _atom_site_symmetry_multiplicity
 _atom_site_fract_x
 _atom_site_fract_y
 _atom_site_fract_z
 _atom_site_occupancy
  K  K0  1  0.85417400  0.44873700  0.25978800  1
  K  K1  1  0.85416900  0.94873600  0.75978900  1
  K  K2  1  0.14583400  0.55126200  0.74021100  1
  K  K3  1  0.14582600  0.05126300  0.24021000  1
  K  K4  1  0.64575700  0.38593900  0.90553400  1
  K  K5  1  0.64575100  0.88593700  0.40553400  1
  K  K6  1  0.35424700  0.61406100  0.09446600  1
  K  K7  1  0.35424500  0.11406300  0.59446600  1
  Mn  Mn8  1  0.74999300  0.50000300  0.50000200  1
  Mn  Mn9  1  0.25000700  0.99999700  0.99999800  1
  Mn  Mn10  1  0.74999300  0.00000400  0.00000200  1
  Mn  Mn11  1  0.25000500  0.49999700  0.49999800  1
  Se  Se12  1  0.10637700  0.25880800  0.95378500  1
  Se  Se13  1  0.10637700  0.75880800  0.45378500  1
  Se  Se14  1  0.89362300  0.74119200  0.04621500  1
  Se  Se15  1  0.89362300  0.24119200  0.54621500  1
  Se  Se16  1  0.39363500  0.43987200  0.34745300  1
  Se  Se17  1  0.39363700  0.93987300  0.84745300  1
  Se  Se18  1  0.60636300  0.56012700  0.65254700  1
  Se  Se19  1  0.60636400  0.06012700  0.15254700  1
loop_
 _atom_site_moment_label
 _atom_site_moment_crystalaxis_x
 _atom_site_moment_crystalaxis_y
 _atom_site_moment_crystalaxis_z
  Mn8  0.00341529  -2.27818507  -3.59194259
  Mn9  0.00341529  -2.27818507  -3.59194259
  Mn10  -0.00341529  2.27818507  3.59194259
  Mn11  -0.00341529  2.27818507  3.59194259
