# generated using pymatgen
data_Rb2CoS2
_symmetry_space_group_name_H-M   'P 1'
_cell_length_a   6.22056860
_cell_length_b   8.11518730
_cell_length_c   12.87063752
_cell_angle_alpha   81.22594392
_cell_angle_beta   103.98508222
_cell_angle_gamma   112.53517045
_symmetry_Int_Tables_number   1
_chemical_formula_structural   Rb2CoS2
_chemical_formula_sum   'Rb8 Co4 S8'
_cell_volume   581.02273098
_cell_formula_units_Z   4
loop_
 _symmetry_equiv_pos_site_id
 _symmetry_equiv_pos_as_xyz
  1  'x, y, z'
loop_
 _atom_site_type_symbol
 _atom_site_label
 _atom_site_symmetry_multiplicity
 _atom_site_fract_x
 _atom_site_fract_y
 _atom_site_fract_z
 _atom_site_occupancy
  Rb  Rb0  1  0.64687200  0.63766800  0.65625100  1
  Rb  Rb1  1  0.64703300  0.13766600  0.15619400  1
  Rb  Rb2  1  0.14700000  0.30317200  0.99067300  1
  Rb  Rb3  1  0.14687900  0.80319500  0.49076100  1
  Rb  Rb4  1  0.35318400  0.36233300  0.34380400  1
  Rb  Rb5  1  0.35296600  0.86233200  0.84375100  1
  Rb  Rb6  1  0.85292100  0.69680000  0.00923900  1
  Rb  Rb7  1  0.85315900  0.19683200  0.50932800  1
  Co  Co8  1  0.74995500  0.75000700  0.25000100  1
  Co  Co9  1  0.25000200  0.24999200  0.74999900  1
  Co  Co10  1  0.75002800  0.25000300  0.74999900  1
  Co  Co11  1  0.24999700  0.74999700  0.25000000  1
  S  S12  1  0.59499200  0.30654100  0.88419500  1
  S  S13  1  0.59564500  0.80649600  0.38402700  1
  S  S14  1  0.09570300  0.47950900  0.71119800  1
  S  S15  1  0.09486600  0.97930700  0.21124000  1
  S  S16  1  0.40517000  0.69349900  0.11597900  1
  S  S17  1  0.40430600  0.19346000  0.61579700  1
  S  S18  1  0.90433300  0.52071400  0.28875000  1
  S  S19  1  0.90499000  0.02048100  0.78881300  1
loop_
 _atom_site_moment_label
 _atom_site_moment_crystalaxis_x
 _atom_site_moment_crystalaxis_y
 _atom_site_moment_crystalaxis_z
  Co8  -0.02008206  -1.16290465  -1.83865613
  Co9  -0.02009943  -1.16391019  -1.84024597
  Co10  0.02013415  1.16592127  1.84342567
  Co11  0.02011679  1.16491573  1.84183582
