# generated using pymatgen
data_Rb2MnSe2
_symmetry_space_group_name_H-M   'P 1'
_cell_length_a   6.72660364
_cell_length_b   7.43731131
_cell_length_c   8.59407632
_cell_angle_alpha   115.64471653
_cell_angle_beta   66.99215192
_cell_angle_gamma   89.98317405
_symmetry_Int_Tables_number   1
_chemical_formula_structural   Rb2MnSe2
_chemical_formula_sum   'Rb4 Mn2 Se4'
_cell_volume   349.24099781
_cell_formula_units_Z   2
loop_
 _symmetry_equiv_pos_site_id
 _symmetry_equiv_pos_as_xyz
  1  'x, y, z'
loop_
 _atom_site_type_symbol
 _atom_site_label
 _atom_site_symmetry_multiplicity
 _atom_site_fract_x
 _atom_site_fract_y
 _atom_site_fract_z
 _atom_site_occupancy
  Rb  Rb0  1  0.64649800  0.52022300  0.70701400  1
  Rb  Rb1  1  0.35350200  0.47977800  0.29298600  1
  Rb  Rb2  1  0.85350900  0.81321100  0.29298200  1
  Rb  Rb3  1  0.14649100  0.18678900  0.70701800  1
  Mn  Mn4  1  0.74999700  0.99999300  0.00000000  1
  Mn  Mn5  1  0.25000300  0.00000700  0.00000000  1
  Se  Se6  1  0.60288400  0.08661900  0.79440800  1
  Se  Se7  1  0.89708900  0.29219500  0.20560300  1
  Se  Se8  1  0.10291100  0.70780500  0.79439700  1
  Se  Se9  1  0.39711700  0.91338100  0.20559200  1
loop_
 _atom_site_moment_label
 _atom_site_moment_crystalaxis_x
 _atom_site_moment_crystalaxis_y
 _atom_site_moment_crystalaxis_z
  Mn4  3.55952662  -0.00737115  -4.54584794
  Mn5  -3.55952662  0.00737115  4.54584794
