# generated using pymatgen
data_Cs2CoSe2
_symmetry_space_group_name_H-M   'P 1'
_cell_length_a   6.67307680
_cell_length_b   7.60248098
_cell_length_c   8.85368220
_cell_angle_alpha   64.57390516
_cell_angle_beta   67.86020213
_cell_angle_gamma   89.99636113
_symmetry_Int_Tables_number   1
_chemical_formula_structural   Cs2CoSe2
_chemical_formula_sum   'Cs4 Co2 Se4'
_cell_volume   368.65783216
_cell_formula_units_Z   2
loop_
 _symmetry_equiv_pos_site_id
 _symmetry_equiv_pos_as_xyz
  1  'x, y, z'
loop_
 _atom_site_type_symbol
 _atom_site_label
 _atom_site_symmetry_multiplicity
 _atom_site_fract_x
 _atom_site_fract_y
 _atom_site_fract_z
 _atom_site_occupancy
  Cs  Cs0  1  0.64603200  0.81874800  0.70785900  1
  Cs  Cs1  1  0.35394500  0.18124800  0.29214300  1
  Cs  Cs2  1  0.85395000  0.52661900  0.29214900  1
  Cs  Cs3  1  0.14606600  0.47337900  0.70785200  1
  Co  Co4  1  0.74999600  0.00000000  0.00000700  1
  Co  Co5  1  0.25000300  0.99999900  0.99999400  1
  Se  Se6  1  0.59247600  0.25837900  0.81506000  1
  Se  Se7  1  0.90754900  0.07344100  0.18495100  1
  Se  Se8  1  0.09236000  0.92656500  0.81505000  1
  Se  Se9  1  0.40762000  0.74162200  0.18493500  1
loop_
 _atom_site_moment_label
 _atom_site_moment_crystalaxis_x
 _atom_site_moment_crystalaxis_y
 _atom_site_moment_crystalaxis_z
  Co4  1.76303985  2.00695110  -2.33767971
  Co5  -1.76454801  -2.00866791  2.33967944
