# generated using pymatgen
data_BeFe2Si
_symmetry_space_group_name_H-M   'P 1'
_cell_length_a   3.53848610
_cell_length_b   3.53581246
_cell_length_c   7.36690828
_cell_angle_alpha   89.95917304
_cell_angle_beta   90.05626013
_cell_angle_gamma   89.99962553
_symmetry_Int_Tables_number   1
_chemical_formula_structural   BeFe2Si
_chemical_formula_sum   'Be2 Fe4 Si2'
_cell_volume   92.17043969
_cell_formula_units_Z   2
loop_
 _symmetry_equiv_pos_site_id
 _symmetry_equiv_pos_as_xyz
  1  'x, y, z'
loop_
 _atom_site_type_symbol
 _atom_site_label
 _atom_site_symmetry_multiplicity
 _atom_site_fract_x
 _atom_site_fract_y
 _atom_site_fract_z
 _atom_site_occupancy
  Be  Be0  1  0.99979500  0.99939600  0.50014600  1
  Be  Be1  1  0.50026800  0.49913700  0.99986600  1
  Fe  Fe2  1  0.49992600  0.00009100  0.75001900  1
  Fe  Fe3  1  0.99995800  0.50011500  0.74997800  1
  Fe  Fe4  1  0.00003600  0.50060300  0.25002500  1
  Fe  Fe5  1  0.50006500  0.00061300  0.24997300  1
  Si  Si6  1  0.99976300  0.00006000  0.99998100  1
  Si  Si7  1  0.50018900  0.49998500  0.50001200  1
loop_
 _atom_site_moment_label
 _atom_site_moment_crystalaxis_x
 _atom_site_moment_crystalaxis_y
 _atom_site_moment_crystalaxis_z
  Fe2  -1.44171259  -1.41579243  -2.00457399
  Fe3  -1.44221916  -1.41628990  -2.00527834
  Fe4  1.44171259  1.41579243  2.00457399
  Fe5  1.44221916  1.41628990  2.00527834
