# generated using pymatgen
data_Rb2MnS2
_symmetry_space_group_name_H-M   'P 1'
_cell_length_a   6.44323859
_cell_length_b   8.25338772
_cell_length_c   13.14547030
_cell_angle_alpha   81.63318400
_cell_angle_beta   75.80869676
_cell_angle_gamma   67.02456472
_symmetry_Int_Tables_number   1
_chemical_formula_structural   Rb2MnS2
_chemical_formula_sum   'Rb8 Mn4 S8'
_cell_volume   622.98880102
_cell_formula_units_Z   4
loop_
 _symmetry_equiv_pos_site_id
 _symmetry_equiv_pos_as_xyz
  1  'x, y, z'
loop_
 _atom_site_type_symbol
 _atom_site_label
 _atom_site_symmetry_multiplicity
 _atom_site_fract_x
 _atom_site_fract_y
 _atom_site_fract_z
 _atom_site_occupancy
  Rb  Rb0  1  0.64799200  0.60810200  0.09593900  1
  Rb  Rb1  1  0.64798400  0.10810400  0.59593800  1
  Rb  Rb2  1  0.35201500  0.39189700  0.90406200  1
  Rb  Rb3  1  0.35200900  0.89189600  0.40406200  1
  Rb  Rb4  1  0.85202300  0.55203900  0.74391000  1
  Rb  Rb5  1  0.85201400  0.05204000  0.24390900  1
  Rb  Rb6  1  0.14798700  0.44796000  0.25609000  1
  Rb  Rb7  1  0.14797700  0.94795900  0.75609100  1
  Mn  Mn8  1  0.74998200  0.49999000  0.50000900  1
  Mn  Mn9  1  0.25001900  0.00001300  0.99999300  1
  Mn  Mn10  1  0.74998500  0.99998600  0.00000900  1
  Mn  Mn11  1  0.25001400  0.50001300  0.49999000  1
  S  S12  1  0.39953800  0.55715700  0.64366700  1
  S  S13  1  0.39954400  0.05715600  0.14366700  1
  S  S14  1  0.60045700  0.44284400  0.35633200  1
  S  S15  1  0.60046000  0.94284300  0.85633400  1
  S  S16  1  0.10043100  0.75594200  0.04322600  1
  S  S17  1  0.10042800  0.25594300  0.54322400  1
  S  S18  1  0.89957100  0.24405700  0.95677500  1
  S  S19  1  0.89957000  0.74405600  0.45677400  1
loop_
 _atom_site_moment_label
 _atom_site_moment_crystalaxis_x
 _atom_site_moment_crystalaxis_y
 _atom_site_moment_crystalaxis_z
  Mn8  3.53767604  -2.27104488  -3.59380108
  Mn9  3.53767604  -2.27104488  -3.59380108
  Mn10  -3.53767604  2.27104488  3.59380108
  Mn11  -3.53767604  2.27104488  3.59380108
