# generated using pymatgen
data_Mg(CrSe2)2
_symmetry_space_group_name_H-M   'P 1'
_cell_length_a   7.67481876
_cell_length_b   7.67517374
_cell_length_c   7.67492300
_cell_angle_alpha   60.00167965
_cell_angle_beta   60.00017890
_cell_angle_gamma   60.00115763
_symmetry_Int_Tables_number   1
_chemical_formula_structural   Mg(CrSe2)2
_chemical_formula_sum   'Mg2 Cr4 Se8'
_cell_volume   319.68721809
_cell_formula_units_Z   2
loop_
 _symmetry_equiv_pos_site_id
 _symmetry_equiv_pos_as_xyz
  1  'x, y, z'
loop_
 _atom_site_type_symbol
 _atom_site_label
 _atom_site_symmetry_multiplicity
 _atom_site_fract_x
 _atom_site_fract_y
 _atom_site_fract_z
 _atom_site_occupancy
  Mg  Mg0  1  0.25000000  0.24999900  0.24999900  1
  Mg  Mg1  1  0.50000000  0.50000000  0.50000000  1
  Cr  Cr2  1  0.87500000  0.37500000  0.87500000  1
  Cr  Cr3  1  0.37500000  0.87500000  0.87500000  1
  Cr  Cr4  1  0.87500000  0.87500000  0.37500000  1
  Cr  Cr5  1  0.87500000  0.87500000  0.87500000  1
  Se  Se6  1  0.11261400  0.66216000  0.11261300  1
  Se  Se7  1  0.08784200  0.63738700  0.63738600  1
  Se  Se8  1  0.63738400  0.63738700  0.63738500  1
  Se  Se9  1  0.63738500  0.63738800  0.08784300  1
  Se  Se10  1  0.11261500  0.11261300  0.11261500  1
  Se  Se11  1  0.11261500  0.11261200  0.66215800  1
  Se  Se12  1  0.63738600  0.08784100  0.63738700  1
  Se  Se13  1  0.66215800  0.11261300  0.11261400  1
loop_
 _atom_site_moment_label
 _atom_site_moment_crystalaxis_x
 _atom_site_moment_crystalaxis_y
 _atom_site_moment_crystalaxis_z
  Cr2  0.00001570  0.00001453  3.25098489
  Cr3  0.00001570  0.00001453  3.25098489
  Cr4  0.00001570  0.00001453  3.25098489
  Cr5  0.00001570  0.00001453  3.25098489
  Se6  -0.00000075  -0.00000070  -0.15599927
  Se7  -0.00000075  -0.00000070  -0.15599927
  Se8  -0.00000075  -0.00000070  -0.15599927
  Se9  -0.00000075  -0.00000070  -0.15599927
  Se10  -0.00000075  -0.00000070  -0.15599927
  Se11  -0.00000075  -0.00000070  -0.15599927
  Se12  -0.00000075  -0.00000070  -0.15599927
  Se13  -0.00000075  -0.00000070  -0.15599927
