# generated using pymatgen
data_CsV5S8
_symmetry_space_group_name_H-M   'P 1'
_cell_length_a   3.64252740
_cell_length_b   11.30175493
_cell_length_c   14.55757128
_cell_angle_alpha   90.05156935
_cell_angle_beta   82.78390163
_cell_angle_gamma   99.35564183
_symmetry_Int_Tables_number   1
_chemical_formula_structural   CsV5S8
_chemical_formula_sum   'Cs2 V10 S16'
_cell_volume   586.51903880
_cell_formula_units_Z   2
loop_
 _symmetry_equiv_pos_site_id
 _symmetry_equiv_pos_as_xyz
  1  'x, y, z'
loop_
 _atom_site_type_symbol
 _atom_site_label
 _atom_site_symmetry_multiplicity
 _atom_site_fract_x
 _atom_site_fract_y
 _atom_site_fract_z
 _atom_site_occupancy
  Cs  Cs0  1  0.75016100  0.25004300  0.74956700  1
  Cs  Cs1  1  0.24862700  0.74956100  0.25059800  1
  V  V2  1  0.98404600  0.64436700  0.67196000  1
  V  V3  1  0.49183000  0.14409800  0.17036600  1
  V  V4  1  0.01798000  0.35562000  0.32804100  1
  V  V5  1  0.50906200  0.85622200  0.83012000  1
  V  V6  1  0.66974200  0.37540700  0.03598200  1
  V  V7  1  0.16859100  0.87547900  0.53642800  1
  V  V8  1  0.33125900  0.62464100  0.96406000  1
  V  V9  1  0.83246900  0.12473700  0.46342100  1
  V  V10  1  0.49769700  0.50047300  0.49948700  1
  V  V11  1  0.00032800  0.00012200  0.00005900  1
  S  S12  1  0.57056800  0.15305400  0.99957700  1
  S  S13  1  0.07406100  0.65316700  0.50000100  1
  S  S14  1  0.42959000  0.84703100  0.00069600  1
  S  S15  1  0.92152700  0.34732000  0.49964300  1
  S  S16  1  0.41406300  0.50331600  0.67057900  1
  S  S17  1  0.91198500  0.00272200  0.17109300  1
  S  S18  1  0.58446700  0.49632500  0.32848300  1
  S  S19  1  0.08842600  0.99735800  0.82885100  1
  S  S20  1  0.24231900  0.41239600  0.92648200  1
  S  S21  1  0.74174800  0.91205100  0.42701000  1
  S  S22  1  0.75805300  0.58746900  0.07371900  1
  S  S23  1  0.25851700  0.08789800  0.57307700  1
  S  S24  1  0.08115600  0.31552300  0.15901800  1
  S  S25  1  0.57648800  0.81567400  0.66062800  1
  S  S26  1  0.91982000  0.68430200  0.84126800  1
  S  S27  1  0.42542800  0.18361100  0.33977500  1
loop_
 _atom_site_moment_label
 _atom_site_moment_crystalaxis_x
 _atom_site_moment_crystalaxis_y
 _atom_site_moment_crystalaxis_z
  Cs0  0.00055625  -0.00182300  -0.00231711
  Cs1  0.00055625  -0.00182300  -0.00231711
  V2  -0.36860578  1.20804097  1.53546845
  V3  -0.37212867  1.21958663  1.55014345
  V4  -0.36879119  1.20864863  1.53624082
  V5  -0.37249950  1.22080196  1.55168819
  V6  -0.37342658  1.22384029  1.55555003
  V7  -0.37101618  1.21594063  1.54550924
  V8  -0.37342658  1.22384029  1.55555003
  V9  -0.37101618  1.21594063  1.54550924
  V10  0.35599753  -1.16671964  -1.48294740
  V11  -0.36786412  1.20561030  1.53237898
  S12  0.01464782  -0.04800565  -0.06101711
  S13  0.00129791  -0.00425367  -0.00540658
  S14  0.01464782  -0.04800565  -0.06101711
  S15  0.00148332  -0.00486133  -0.00617895
  S16  0.00871452  -0.02856032  -0.03630132
  S17  0.01705822  -0.05590532  -0.07105790
  S18  0.00889994  -0.02916799  -0.03707368
  S19  0.01724363  -0.05651298  -0.07183026
  S20  0.01705822  -0.05590532  -0.07105790
  S21  0.01650197  -0.05408232  -0.06874079
  S22  0.01705822  -0.05590532  -0.07105790
  S23  0.01650197  -0.05408232  -0.06874079
  S24  0.01279366  -0.04192899  -0.05329342
  S25  0.01372074  -0.04496732  -0.05715526
  S26  0.01260825  -0.04132132  -0.05252105
  S27  0.01353532  -0.04435965  -0.05638290
