# generated using pymatgen
data_KV5Se8
_symmetry_space_group_name_H-M   'P 1'
_cell_length_a   3.81445305
_cell_length_b   11.62201398
_cell_length_c   15.13439830
_cell_angle_alpha   86.54526184
_cell_angle_beta   96.90660205
_cell_angle_gamma   99.26703679
_symmetry_Int_Tables_number   1
_chemical_formula_structural   KV5Se8
_chemical_formula_sum   'K2 V10 Se16'
_cell_volume   656.79788908
_cell_formula_units_Z   2
loop_
 _symmetry_equiv_pos_site_id
 _symmetry_equiv_pos_as_xyz
  1  'x, y, z'
loop_
 _atom_site_type_symbol
 _atom_site_label
 _atom_site_symmetry_multiplicity
 _atom_site_fract_x
 _atom_site_fract_y
 _atom_site_fract_z
 _atom_site_occupancy
  K  K0  1  0.50051300  0.00013900  0.00068100  1
  K  K1  1  0.49920000  0.49974400  0.49905200  1
  V  V2  1  0.00195400  0.75008500  0.25033100  1
  V  V3  1  0.34154900  0.60837700  0.07850500  1
  V  V4  1  0.65610700  0.89166100  0.42164300  1
  V  V5  1  0.29637200  0.37527400  0.21438300  1
  V  V6  1  0.70753500  0.12524300  0.28556400  1
  V  V7  1  0.99700500  0.24982900  0.74982300  1
  V  V8  1  0.34069600  0.10897700  0.57972600  1
  V  V9  1  0.66067100  0.39109400  0.92006100  1
  V  V10  1  0.29298400  0.87463300  0.71510100  1
  V  V11  1  0.70559100  0.62474300  0.78483000  1
  Se  Se12  1  0.42672000  0.59676700  0.25208200  1
  Se  Se13  1  0.42222300  0.09644300  0.75296000  1
  Se  Se14  1  0.57224700  0.40320500  0.74694200  1
  Se  Se15  1  0.57697200  0.90346900  0.24820400  1
  Se  Se16  1  0.91623600  0.75752500  0.07588600  1
  Se  Se17  1  0.91364200  0.25801300  0.57575000  1
  Se  Se18  1  0.08505400  0.24214200  0.92402800  1
  Se  Se19  1  0.08357100  0.74247400  0.42462900  1
  Se  Se20  1  0.83384300  0.33976900  0.32791800  1
  Se  Se21  1  0.82972900  0.83879200  0.82836300  1
  Se  Se22  1  0.16774600  0.66065400  0.67150800  1
  Se  Se23  1  0.17098700  0.16069800  0.17208500  1
  Se  Se24  1  0.76291700  0.43388800  0.08976300  1
  Se  Se25  1  0.76109900  0.93460600  0.59094900  1
  Se  Se26  1  0.23956400  0.56553300  0.90905300  1
  Se  Se27  1  0.23727200  0.06622300  0.41018100  1
loop_
 _atom_site_moment_label
 _atom_site_moment_crystalaxis_x
 _atom_site_moment_crystalaxis_y
 _atom_site_moment_crystalaxis_z
  V2  0.00510154  -1.22289993  -1.56083453
  V3  0.00517402  -1.24027577  -1.58301199
  V4  0.00517402  -1.24027577  -1.58301199
  V5  0.00518402  -1.24267244  -1.58607095
  V6  0.00518402  -1.24267244  -1.58607095
  V7  -0.00510404  1.22349910  1.56159927
  V8  -0.00516902  1.23907744  1.58148251
  V9  -0.00517402  1.24027577  1.58301199
  V10  -0.00518402  1.24267244  1.58607095
  V11  -0.00518152  1.24207327  1.58530621
  Se12  -0.00025995  0.06231337  0.07953297
  Se13  0.00025995  -0.06231337  -0.07953297
  Se14  0.00026245  -0.06291254  -0.08029771
  Se15  -0.00025995  0.06231337  0.07953297
  Se16  -0.00028245  0.06770588  0.08641563
  Se17  0.00028245  -0.06770588  -0.08641563
  Se18  0.00028245  -0.06770588  -0.08641563
  Se19  -0.00028245  0.06770588  0.08641563
  Se20  -0.00027745  0.06650754  0.08488615
  Se21  0.00027745  -0.06650754  -0.08488615
  Se22  0.00027745  -0.06650754  -0.08488615
  Se23  -0.00027745  0.06650754  0.08488615
  Se24  -0.00008498  0.02037168  0.02600116
  Se25  0.00008498  -0.02037168  -0.02600116
  Se26  0.00008498  -0.02037168  -0.02600116
  Se27  -0.00008498  0.02037168  0.02600116
