# generated using pymatgen
data_KFeSe2
_symmetry_space_group_name_H-M   'P 1'
_cell_length_a   5.89508937
_cell_length_b   7.03930911
_cell_length_c   7.03008410
_cell_angle_alpha   115.25786109
_cell_angle_beta   102.29015862
_cell_angle_gamma   102.37965978
_symmetry_Int_Tables_number   1
_chemical_formula_structural   KFeSe2
_chemical_formula_sum   'K2 Fe2 Se4'
_cell_volume   241.92761502
_cell_formula_units_Z   2
loop_
 _symmetry_equiv_pos_site_id
 _symmetry_equiv_pos_as_xyz
  1  'x, y, z'
loop_
 _atom_site_type_symbol
 _atom_site_label
 _atom_site_symmetry_multiplicity
 _atom_site_fract_x
 _atom_site_fract_y
 _atom_site_fract_z
 _atom_site_occupancy
  K  K0  1  0.75004800  0.63791800  0.36201400  1
  K  K1  1  0.24995400  0.36208200  0.63798200  1
  Fe  Fe2  1  0.25001100  0.99669800  0.00346700  1
  Fe  Fe3  1  0.75000000  0.00331200  0.99653300  1
  Se  Se4  1  0.10748500  0.31145400  0.08666900  1
  Se  Se5  1  0.39279200  0.91340700  0.68826800  1
  Se  Se6  1  0.89252500  0.68854100  0.91333200  1
  Se  Se7  1  0.60718500  0.08658800  0.31173500  1
loop_
 _atom_site_moment_label
 _atom_site_moment_crystalaxis_x
 _atom_site_moment_crystalaxis_y
 _atom_site_moment_crystalaxis_z
  Fe2  -0.02718120  0.01569697  -3.74693235
  Fe3  0.02718845  -0.01570116  3.74793206
  Se4  -0.00004351  0.00002513  -0.00599829
  Se5  -0.00004351  0.00002513  -0.00599829
  Se6  0.00004351  -0.00002513  0.00599829
  Se7  0.00004351  -0.00002513  0.00599829
