# generated using pymatgen
data_FeSb3
_symmetry_space_group_name_H-M   'P 1'
_cell_length_a   8.39843962
_cell_length_b   8.40310034
_cell_length_c   8.38597991
_cell_angle_alpha   109.14552959
_cell_angle_beta   109.60061537
_cell_angle_gamma   109.57532961
_symmetry_Int_Tables_number   1
_chemical_formula_structural   FeSb3
_chemical_formula_sum   'Fe4 Sb12'
_cell_volume   456.09647661
_cell_formula_units_Z   4
loop_
 _symmetry_equiv_pos_site_id
 _symmetry_equiv_pos_as_xyz
  1  'x, y, z'
loop_
 _atom_site_type_symbol
 _atom_site_label
 _atom_site_symmetry_multiplicity
 _atom_site_fract_x
 _atom_site_fract_y
 _atom_site_fract_z
 _atom_site_occupancy
  Fe  Fe0  1  0.50000000  0.00000000  0.99999800  1
  Fe  Fe1  1  0.00000600  0.99999800  0.50000000  1
  Fe  Fe2  1  0.50000400  0.50000100  0.49999800  1
  Fe  Fe3  1  0.00000400  0.50000400  0.00000000  1
  Sb  Sb4  1  0.49966600  0.65002700  0.84788100  1
  Sb  Sb5  1  0.65203400  0.85220200  0.50264600  1
  Sb  Sb6  1  0.84853800  0.49882000  0.65081900  1
  Sb  Sb7  1  0.80259600  0.64971200  0.15022700  1
  Sb  Sb8  1  0.34974000  0.85040000  0.19990600  1
  Sb  Sb9  1  0.65025900  0.14959900  0.80009500  1
  Sb  Sb10  1  0.84752100  0.19554700  0.34861300  1
  Sb  Sb11  1  0.34796500  0.14779500  0.49735600  1
  Sb  Sb12  1  0.50032900  0.34997100  0.15211700  1
  Sb  Sb13  1  0.15146100  0.50118100  0.34918300  1
  Sb  Sb14  1  0.19740100  0.35028800  0.84977400  1
  Sb  Sb15  1  0.15247600  0.80445500  0.65138700  1
loop_
 _atom_site_moment_label
 _atom_site_moment_crystalaxis_x
 _atom_site_moment_crystalaxis_y
 _atom_site_moment_crystalaxis_z
  Fe0  -3.26114505  -0.00641325  -0.00596669
  Fe1  -3.25313487  -0.00639749  -0.00595204
  Fe2  3.27716541  0.00644475  0.00599600
  Fe3  3.27115777  0.00643294  0.00598501
  Sb4  -0.00200255  -0.00000394  -0.00000366
  Sb6  -0.04105218  -0.00008073  -0.00007511
  Sb7  -0.00200255  -0.00000394  -0.00000366
  Sb8  -0.00100127  -0.00000197  -0.00000183
  Sb9  -0.00100127  -0.00000197  -0.00000183
  Sb10  0.04305472  0.00008467  0.00007877
  Sb12  -0.00200255  -0.00000394  -0.00000366
  Sb13  -0.04105218  -0.00008073  -0.00007511
  Sb14  -0.00200255  -0.00000394  -0.00000366
  Sb15  0.04305472  0.00008467  0.00007877
