# generated using pymatgen
data_V5Te4
_symmetry_space_group_name_H-M   'P 1'
_cell_length_a   4.13043218
_cell_length_b   14.90759833
_cell_length_c   7.72856324
_cell_angle_alpha   92.00393008
_cell_angle_beta   105.49140785
_cell_angle_gamma   89.99589307
_symmetry_Int_Tables_number   1
_chemical_formula_structural   V5Te4
_chemical_formula_sum   'V10 Te8'
_cell_volume   458.29458166
_cell_formula_units_Z   2
loop_
 _symmetry_equiv_pos_site_id
 _symmetry_equiv_pos_as_xyz
  1  'x, y, z'
loop_
 _atom_site_type_symbol
 _atom_site_label
 _atom_site_symmetry_multiplicity
 _atom_site_fract_x
 _atom_site_fract_y
 _atom_site_fract_z
 _atom_site_occupancy
  V  V0  1  0.50021400  0.49999900  0.00002900  1
  V  V1  1  0.63960500  0.04213400  0.27945300  1
  V  V2  1  0.53890700  0.85523600  0.07786500  1
  V  V3  1  0.46105600  0.14476000  0.92211700  1
  V  V4  1  0.36039300  0.95786500  0.72057600  1
  V  V5  1  0.99989100  0.00001400  0.00006800  1
  V  V6  1  0.13966800  0.54209200  0.27941500  1
  V  V7  1  0.03892100  0.35524100  0.07782200  1
  V  V8  1  0.96107900  0.64475800  0.92213900  1
  V  V9  1  0.86032200  0.45790700  0.72054800  1
  Te  Te10  1  0.83070100  0.09401200  0.66113600  1
  Te  Te11  1  0.33066100  0.59402100  0.66111500  1
  Te  Te12  1  0.10123000  0.17326700  0.20260600  1
  Te  Te13  1  0.60125700  0.67323600  0.20264800  1
  Te  Te14  1  0.39870400  0.32676600  0.79731800  1
  Te  Te15  1  0.89875800  0.82674900  0.79739800  1
  Te  Te16  1  0.66932300  0.40596700  0.33886700  1
  Te  Te17  1  0.16930800  0.90597900  0.33888000  1
loop_
 _atom_site_moment_label
 _atom_site_moment_crystalaxis_x
 _atom_site_moment_crystalaxis_y
 _atom_site_moment_crystalaxis_z
  V0  0.70015882  -2.45909949  -0.04574636
  V1  0.72916110  -2.56096137  -0.04764128
  V2  0.72888749  -2.56000041  -0.04762341
  V3  0.72888749  -2.56000041  -0.04762341
  V4  0.72916110  -2.56096137  -0.04764128
  V5  -0.70015882  2.45909949  0.04574636
  V6  -0.72916110  2.56096137  0.04764128
  V7  -0.72888749  2.56000041  0.04762341
  V8  -0.72888749  2.56000041  0.04762341
  V9  -0.72916110  2.56096137  0.04764128
  Te10  -0.01203868  0.04228229  0.00078657
  Te11  0.01203868  -0.04228229  -0.00078657
  Te12  -0.00383049  0.01345346  0.00025027
  Te13  0.00383049  -0.01345346  -0.00025027
  Te14  0.00383049  -0.01345346  -0.00025027
  Te15  -0.00383049  0.01345346  0.00025027
  Te16  0.01203868  -0.04228229  -0.00078657
  Te17  -0.01203868  0.04228229  0.00078657
