# generated using pymatgen
data_Ni3Sb
_symmetry_space_group_name_H-M   'P 1'
_cell_length_a   3.89714928
_cell_length_b   3.89018713
_cell_length_c   7.81236789
_cell_angle_alpha   90.14409259
_cell_angle_beta   90.06118699
_cell_angle_gamma   89.63694643
_symmetry_Int_Tables_number   1
_chemical_formula_structural   Ni3Sb
_chemical_formula_sum   'Ni6 Sb2'
_cell_volume   118.43767909
_cell_formula_units_Z   2
loop_
 _symmetry_equiv_pos_site_id
 _symmetry_equiv_pos_as_xyz
  1  'x, y, z'
loop_
 _atom_site_type_symbol
 _atom_site_label
 _atom_site_symmetry_multiplicity
 _atom_site_fract_x
 _atom_site_fract_y
 _atom_site_fract_z
 _atom_site_occupancy
  Ni  Ni0  1  0.50021600  0.99983400  0.25118300  1
  Ni  Ni1  1  0.49979300  0.99901300  0.75014600  1
  Ni  Ni2  1  0.49906800  0.50177900  0.50453700  1
  Ni  Ni3  1  0.00071500  0.49994500  0.25032000  1
  Ni  Ni4  1  0.99958600  0.50008300  0.74890500  1
  Ni  Ni5  1  0.50090300  0.49898500  0.99506500  1
  Sb  Sb6  1  0.00329800  0.99723900  0.00013300  1
  Sb  Sb7  1  0.99642100  0.00312200  0.49971000  1
loop_
 _atom_site_moment_label
 _atom_site_moment_crystalaxis_x
 _atom_site_moment_crystalaxis_y
 _atom_site_moment_crystalaxis_z
  Ni0  0.00037866  0.00084502  0.65300187
  Ni1  0.00038620  0.00086184  0.66600191
  Ni2  0.00053059  0.00118406  0.91500262
  Ni3  0.00052943  0.00118147  0.91300261
  Ni4  0.00053233  0.00118794  0.91800263
  Ni5  0.00005625  0.00012552  0.09700028
  Sb6  0.00000406  0.00000906  0.00700002
  Sb7  0.00000232  0.00000518  0.00400001
