# generated using pymatgen
data_Ni3As
_symmetry_space_group_name_H-M   'P 1'
_cell_length_a   5.27272398
_cell_length_b   5.26566994
_cell_length_c   4.26390136
_cell_angle_alpha   90.38353114
_cell_angle_beta   89.91669834
_cell_angle_gamma   119.92845048
_symmetry_Int_Tables_number   1
_chemical_formula_structural   Ni3As
_chemical_formula_sum   'Ni6 As2'
_cell_volume   102.59551119
_cell_formula_units_Z   2
loop_
 _symmetry_equiv_pos_site_id
 _symmetry_equiv_pos_as_xyz
  1  'x, y, z'
loop_
 _atom_site_type_symbol
 _atom_site_label
 _atom_site_symmetry_multiplicity
 _atom_site_fract_x
 _atom_site_fract_y
 _atom_site_fract_z
 _atom_site_occupancy
  Ni  Ni0  1  0.16321600  0.32805700  0.25178400  1
  Ni  Ni1  1  0.66899500  0.83449400  0.24961700  1
  Ni  Ni2  1  0.16334000  0.83530900  0.24893500  1
  Ni  Ni3  1  0.83677600  0.67189000  0.74831400  1
  Ni  Ni4  1  0.33086400  0.16551000  0.75032300  1
  Ni  Ni5  1  0.83667500  0.16466100  0.75102200  1
  As  As6  1  0.33419300  0.66707700  0.75009800  1
  As  As7  1  0.66594000  0.33300300  0.24990600  1
loop_
 _atom_site_moment_label
 _atom_site_moment_crystalaxis_x
 _atom_site_moment_crystalaxis_y
 _atom_site_moment_crystalaxis_z
  Ni0  0.00114457  0.00368340  0.92901725
  Ni1  0.00114457  0.00368340  0.92901725
  Ni2  0.00114334  0.00367944  0.92801723
  Ni3  0.00114334  0.00367944  0.92801723
  Ni4  0.00114211  0.00367547  0.92701721
  Ni5  0.00114211  0.00367547  0.92701721
  As6  0.00002094  0.00006740  0.01700032
  As7  0.00002094  0.00006740  0.01700032
