# generated using pymatgen
data_Mn4As3
_symmetry_space_group_name_H-M   'P 1'
_cell_length_a   7.38526728
_cell_length_b   7.38495600
_cell_length_c   10.28868533
_cell_angle_alpha   79.44617673
_cell_angle_beta   79.44276354
_cell_angle_gamma   30.75591110
_symmetry_Int_Tables_number   1
_chemical_formula_structural   Mn4As3
_chemical_formula_sum   'Mn8 As6'
_cell_volume   281.73190705
_cell_formula_units_Z   2
loop_
 _symmetry_equiv_pos_site_id
 _symmetry_equiv_pos_as_xyz
  1  'x, y, z'
loop_
 _atom_site_type_symbol
 _atom_site_label
 _atom_site_symmetry_multiplicity
 _atom_site_fract_x
 _atom_site_fract_y
 _atom_site_fract_z
 _atom_site_occupancy
  Mn  Mn0  1  0.78009000  0.77988800  0.14846500  1
  Mn  Mn1  1  0.22019600  0.21988600  0.85150900  1
  Mn  Mn2  1  0.65242200  0.65211900  0.55317800  1
  Mn  Mn3  1  0.34800800  0.34751500  0.44672100  1
  Mn  Mn4  1  0.56565200  0.56530700  0.27121800  1
  Mn  Mn5  1  0.43459100  0.43433000  0.72896700  1
  Mn  Mn6  1  0.00023300  0.99975800  0.50014300  1
  Mn  Mn7  1  0.99863300  0.00139300  0.99970900  1
  As  As8  1  0.93229400  0.93192700  0.27583800  1
  As  As9  1  0.06808500  0.06780500  0.72423000  1
  As  As10  1  0.81639900  0.81603100  0.64843500  1
  As  As11  1  0.18392800  0.18356800  0.35157300  1
  As  As12  1  0.63269500  0.63323200  0.01304700  1
  As  As13  1  0.36677200  0.36724000  0.98696800  1
loop_
 _atom_site_moment_label
 _atom_site_moment_crystalaxis_x
 _atom_site_moment_crystalaxis_y
 _atom_site_moment_crystalaxis_z
  Mn0  0.05942405  0.06050202  4.49760536
  Mn1  0.05942405  0.06050202  4.49760536
  Mn2  0.05914802  0.06022099  4.47671403
  Mn3  0.05914802  0.06022099  4.47671403
  Mn4  0.05866170  0.05972584  4.43990549
  Mn5  0.05866170  0.05972584  4.43990549
  Mn6  0.05754446  0.05858833  4.35534534
  Mn7  0.05900344  0.06007378  4.46577095
  As8  -0.00203732  -0.00207428  -0.15419793
  As9  -0.00203732  -0.00207428  -0.15419793
  As10  -0.00153785  -0.00156575  -0.11639456
  As11  -0.00152470  -0.00155236  -0.11539974
  As12  -0.00260251  -0.00264972  -0.19697542
  As13  -0.00260251  -0.00264972  -0.19697542
