# generated using pymatgen
data_Rb(FeAs)2
_symmetry_space_group_name_H-M   'P 1'
_cell_length_a   5.92883135
_cell_length_b   7.77966228
_cell_length_c   5.86621303
_cell_angle_alpha   90.28946271
_cell_angle_beta   90.22331147
_cell_angle_gamma   68.58183088
_symmetry_Int_Tables_number   1
_chemical_formula_structural   Rb(FeAs)2
_chemical_formula_sum   'Rb2 Fe4 As4'
_cell_volume   251.88528289
_cell_formula_units_Z   2
loop_
 _symmetry_equiv_pos_site_id
 _symmetry_equiv_pos_as_xyz
  1  'x, y, z'
loop_
 _atom_site_type_symbol
 _atom_site_label
 _atom_site_symmetry_multiplicity
 _atom_site_fract_x
 _atom_site_fract_y
 _atom_site_fract_z
 _atom_site_occupancy
  Rb  Rb0  1  0.49999100  0.00004700  0.50015500  1
  Rb  Rb1  1  0.00001500  0.99997100  0.99982700  1
  Fe  Fe2  1  0.00078200  0.49892000  0.22940300  1
  Fe  Fe3  1  0.99934600  0.50110000  0.76996900  1
  Fe  Fe4  1  0.50065800  0.49891800  0.72992400  1
  Fe  Fe5  1  0.49926300  0.50102800  0.27071500  1
  As  As6  1  0.14321400  0.69709800  0.50075500  1
  As  As7  1  0.64320700  0.69703700  0.00176900  1
  As  As8  1  0.35680400  0.30287100  0.99917900  1
  As  As9  1  0.85672000  0.30301000  0.49830400  1
loop_
 _atom_site_moment_label
 _atom_site_moment_crystalaxis_x
 _atom_site_moment_crystalaxis_y
 _atom_site_moment_crystalaxis_z
  Fe2  1.31760758  -3.53723243  -1.21022314
  Fe3  1.31798361  -3.53824192  -1.21056853
  Fe4  -1.31760758  3.53723243  1.21022314
  Fe5  -1.31760758  3.53723243  1.21022314
  As6  -0.00451235  0.01211381  0.00414460
  As7  0.00451235  -0.01211381  -0.00414460
  As8  0.00451235  -0.01211381  -0.00414460
  As9  -0.00451235  0.01211381  0.00414460
