# generated using pymatgen
data_MnSe
_symmetry_space_group_name_H-M   'P 1'
_cell_length_a   4.26801000
_cell_length_b   7.37505300
_cell_length_c   6.93119100
_cell_angle_alpha   90.00006414
_cell_angle_beta   90.00002169
_cell_angle_gamma   90.00007912
_symmetry_Int_Tables_number   1
_chemical_formula_structural   MnSe
_chemical_formula_sum   'Mn4 Se4'
_cell_volume   218.17171255
_cell_formula_units_Z   4
loop_
 _symmetry_equiv_pos_site_id
 _symmetry_equiv_pos_as_xyz
  1  'x, y, z'
loop_
 _atom_site_type_symbol
 _atom_site_label
 _atom_site_symmetry_multiplicity
 _atom_site_fract_x
 _atom_site_fract_y
 _atom_site_fract_z
 _atom_site_occupancy
  Mn  Mn0  1  0.00000000  0.66668700  0.49976800  1
  Mn  Mn1  1  0.00000000  0.33331300  0.99976800  1
  Mn  Mn2  1  0.50000000  0.16668700  0.49976800  1
  Mn  Mn3  1  0.49999900  0.83331300  0.99976800  1
  Se  Se4  1  0.50000000  0.16659800  0.87623200  1
  Se  Se5  1  0.00000000  0.66659900  0.87623200  1
  Se  Se6  1  0.00000000  0.33340100  0.37623200  1
  Se  Se7  1  0.50000000  0.83340200  0.37623200  1
loop_
 _atom_site_moment_label
 _atom_site_moment_crystalaxis_x
 _atom_site_moment_crystalaxis_y
 _atom_site_moment_crystalaxis_z
  Mn0  -0.00000066  -0.00000265  -4.58600000
  Mn1  -0.00000066  -0.00000265  -4.58600000
  Mn2  0.00000066  0.00000265  4.58600000
  Mn3  0.00000066  0.00000265  4.58600000
  Se4  0.00000000  0.00000000  -0.00100000
  Se5  0.00000000  0.00000000  0.00100000
  Se6  0.00000000  0.00000000  0.00100000
  Se7  0.00000000  0.00000000  -0.00100000
