# generated using pymatgen
data_NaVS2
_symmetry_space_group_name_H-M   'P 1'
_cell_length_a   3.65033955
_cell_length_b   3.60879098
_cell_length_c   13.44021263
_cell_angle_alpha   90.03667429
_cell_angle_beta   89.71401993
_cell_angle_gamma   60.62371411
_symmetry_Int_Tables_number   1
_chemical_formula_structural   NaVS2
_chemical_formula_sum   'Na2 V2 S4'
_cell_volume   154.28332178
_cell_formula_units_Z   2
loop_
 _symmetry_equiv_pos_site_id
 _symmetry_equiv_pos_as_xyz
  1  'x, y, z'
loop_
 _atom_site_type_symbol
 _atom_site_label
 _atom_site_symmetry_multiplicity
 _atom_site_fract_x
 _atom_site_fract_y
 _atom_site_fract_z
 _atom_site_occupancy
  Na  Na0  1  0.99981100  0.00018900  0.24992100  1
  Na  Na1  1  0.99991500  0.99994100  0.75009000  1
  V  V2  1  0.99973700  0.00019600  0.49999600  1
  V  V3  1  0.00013100  0.99990200  0.00005400  1
  S  S4  1  0.66841500  0.66586300  0.10281000  1
  S  S5  1  0.66692900  0.66636500  0.60244500  1
  S  S6  1  0.33326100  0.33353200  0.39759800  1
  S  S7  1  0.33180100  0.33401300  0.89708600  1
loop_
 _atom_site_moment_label
 _atom_site_moment_crystalaxis_x
 _atom_site_moment_crystalaxis_y
 _atom_site_moment_crystalaxis_z
  V2  0.00704310  -0.00410341  -1.99002821
  V3  -0.00704664  0.00410547  1.99102822
  S4  0.00022297  -0.00012991  -0.06300089
  S5  -0.00022297  0.00012991  0.06300089
  S6  -0.00022297  0.00012991  0.06300089
  S7  0.00022297  -0.00012991  -0.06300089
