# generated using pymatgen
data_CaNi2S5
_symmetry_space_group_name_H-M   'P 1'
_cell_length_a   4.35172024
_cell_length_b   6.90951651
_cell_length_c   12.73428994
_cell_angle_alpha   90.01383585
_cell_angle_beta   75.14168793
_cell_angle_gamma   90.05436763
_symmetry_Int_Tables_number   1
_chemical_formula_structural   CaNi2S5
_chemical_formula_sum   'Ca2 Ni4 S10'
_cell_volume   370.09506275
_cell_formula_units_Z   2
loop_
 _symmetry_equiv_pos_site_id
 _symmetry_equiv_pos_as_xyz
  1  'x, y, z'
loop_
 _atom_site_type_symbol
 _atom_site_label
 _atom_site_symmetry_multiplicity
 _atom_site_fract_x
 _atom_site_fract_y
 _atom_site_fract_z
 _atom_site_occupancy
  Ca  Ca0  1  0.50968600  0.57982500  0.00879600  1
  Ca  Ca1  1  0.01506900  0.42013800  0.50938000  1
  Ni  Ni2  1  0.45264600  0.93402600  0.34816200  1
  Ni  Ni3  1  0.50888900  0.96459200  0.64612800  1
  Ni  Ni4  1  0.00672600  0.03653100  0.14602500  1
  Ni  Ni5  1  0.94929600  0.06533500  0.84849400  1
  S  S6  1  0.55651900  0.13248000  0.48062600  1
  S  S7  1  0.05202900  0.86783100  0.98106600  1
  S  S8  1  0.48914000  0.89237300  0.16704700  1
  S  S9  1  0.97151600  0.10801700  0.34230100  1
  S  S10  1  0.46831900  0.89081700  0.84285400  1
  S  S11  1  0.99146100  0.10751900  0.66720300  1
  S  S12  1  0.04955800  0.36530100  0.91677000  1
  S  S13  1  0.46498500  0.64198300  0.58918700  1
  S  S14  1  0.55512600  0.63472400  0.41690800  1
  S  S15  1  0.95903500  0.35850700  0.08905100  1
loop_
 _atom_site_moment_label
 _atom_site_moment_crystalaxis_x
 _atom_site_moment_crystalaxis_y
 _atom_site_moment_crystalaxis_z
  Ca0  -0.00165157  0.00000704  0.01231686
  Ca1  0.00165157  -0.00000704  -0.01231686
  Ni2  0.21456603  -0.00091498  -1.60016484
  Ni3  0.22034651  -0.00093963  -1.64327383
  Ni4  -0.22020888  0.00093904  1.64224743
  Ni5  -0.21470366  0.00091557  1.60119124
  S6  0.01211149  -0.00005165  -0.09032361
  S7  -0.01211149  0.00005165  0.09032361
  S8  -0.00233972  0.00000998  0.01744888
  S9  0.00715679  -0.00003052  -0.05337304
  S10  -0.00715679  0.00003052  0.05337304
  S11  0.00233972  -0.00000998  -0.01744888
  S12  -0.00454181  0.00001937  0.03387135
  S13  0.00426655  -0.00001819  -0.03181854
  S14  0.00440418  -0.00001878  -0.03284495
  S15  -0.00426655  0.00001819  0.03181854
