# generated using pymatgen
data_Ca(MnS2)2
_symmetry_space_group_name_H-M   'P 1'
_cell_length_a   8.10372032
_cell_length_b   8.10365641
_cell_length_c   7.06708087
_cell_angle_alpha   114.75437315
_cell_angle_beta   65.24771482
_cell_angle_gamma   74.34049848
_symmetry_Int_Tables_number   1
_chemical_formula_structural   Ca(MnS2)2
_chemical_formula_sum   'Ca2 Mn4 S8'
_cell_volume   322.15517311
_cell_formula_units_Z   2
loop_
 _symmetry_equiv_pos_site_id
 _symmetry_equiv_pos_as_xyz
  1  'x, y, z'
loop_
 _atom_site_type_symbol
 _atom_site_label
 _atom_site_symmetry_multiplicity
 _atom_site_fract_x
 _atom_site_fract_y
 _atom_site_fract_z
 _atom_site_occupancy
  Ca  Ca0  1  0.49995300  0.49998500  0.00000500  1
  Ca  Ca1  1  0.25004700  0.25001500  0.49999500  1
  Mn  Mn2  1  0.37500000  0.87500000  0.75000000  1
  Mn  Mn3  1  0.87500000  0.87500000  0.25000000  1
  Mn  Mn4  1  0.87500100  0.87500000  0.74999900  1
  Mn  Mn5  1  0.87499900  0.37500000  0.25000000  1
  S  S6  1  0.63892900  0.65509100  0.27847100  1
  S  S7  1  0.12652800  0.66747700  0.77859800  1
  S  S8  1  0.09490600  0.11106000  0.77847000  1
  S  S9  1  0.66749300  0.12652200  0.22139300  1
  S  S10  1  0.65509300  0.63894100  0.72153300  1
  S  S11  1  0.08250900  0.62347700  0.27860500  1
  S  S12  1  0.11107000  0.09490900  0.22152900  1
  S  S13  1  0.62347100  0.08252400  0.72140200  1
loop_
 _atom_site_moment_label
 _atom_site_moment_crystalaxis_x
 _atom_site_moment_crystalaxis_y
 _atom_site_moment_crystalaxis_z
  Mn2  0.49986436  -4.23491147  -4.12843013
  Mn3  0.49974560  -4.23390532  -4.12744928
  Mn4  -0.49974560  4.23390532  4.12744928
  Mn5  -0.49986436  4.23491147  4.12843013
  S6  0.00106885  -0.00905541  -0.00882772
  S7  0.00106885  -0.00905541  -0.00882772
  S8  -0.00106885  0.00905541  0.00882772
  S9  -0.00106885  0.00905541  0.00882772
  S10  -0.00106885  0.00905541  0.00882772
  S11  -0.00106885  0.00905541  0.00882772
  S12  0.00106885  -0.00905541  -0.00882772
  S13  0.00106885  -0.00905541  -0.00882772
