# generated using pymatgen
data_Li(VS2)2
_symmetry_space_group_name_H-M   'P 1'
_cell_length_a   7.11950987
_cell_length_b   7.20607502
_cell_length_c   7.11976054
_cell_angle_alpha   60.42490144
_cell_angle_beta   89.90723821
_cell_angle_gamma   119.51390938
_symmetry_Int_Tables_number   1
_chemical_formula_structural   Li(VS2)2
_chemical_formula_sum   'Li2 V4 S8'
_cell_volume   261.59969507
_cell_formula_units_Z   2
loop_
 _symmetry_equiv_pos_site_id
 _symmetry_equiv_pos_as_xyz
  1  'x, y, z'
loop_
 _atom_site_type_symbol
 _atom_site_label
 _atom_site_symmetry_multiplicity
 _atom_site_fract_x
 _atom_site_fract_y
 _atom_site_fract_z
 _atom_site_occupancy
  Li  Li0  1  0.49982400  0.99988100  0.49997900  1
  Li  Li1  1  0.25015900  0.50010200  0.25002500  1
  V  V2  1  0.87498200  0.75002000  0.87498200  1
  V  V3  1  0.87501800  0.25001900  0.87498700  1
  V  V4  1  0.37501000  0.25000600  0.87499900  1
  V  V5  1  0.87502800  0.75000600  0.37500100  1
  S  S6  1  0.11355300  0.22660500  0.12303400  1
  S  S7  1  0.12395200  0.77438800  0.11311000  1
  S  S8  1  0.65060400  0.77381600  0.11365800  1
  S  S9  1  0.63643400  0.27338600  0.62695500  1
  S  S10  1  0.63575000  0.27273500  0.09962400  1
  S  S11  1  0.62603500  0.72562000  0.63687300  1
  S  S12  1  0.11425900  0.22727900  0.65038700  1
  S  S13  1  0.09939400  0.72613700  0.63638500  1
loop_
 _atom_site_moment_label
 _atom_site_moment_crystalaxis_x
 _atom_site_moment_crystalaxis_y
 _atom_site_moment_crystalaxis_z
  Li0  -0.00000293  -0.00000103  0.00300051
  Li1  -0.00000293  -0.00000103  0.00300051
  V2  -0.00186720  -0.00065434  1.90932530
  V3  -0.00164713  -0.00057721  1.68428696
  V4  -0.00157475  -0.00055185  1.61027435
  V5  -0.00181243  -0.00063514  1.85331575
  S6  0.00013889  0.00004867  -0.14202420
  S7  0.00013302  0.00004662  -0.13602317
  S8  0.00014182  0.00004970  -0.14502471
  S9  0.00013889  0.00004867  -0.14202420
  S10  0.00016139  0.00005656  -0.16502812
  S11  0.00013302  0.00004662  -0.13602317
  S12  0.00016139  0.00005656  -0.16502812
  S13  0.00014182  0.00004970  -0.14502471
