# generated using pymatgen
data_Mg(FeS2)2
_symmetry_space_group_name_H-M   'P 1'
_cell_length_a   7.36985899
_cell_length_b   7.36988385
_cell_length_c   7.36989352
_cell_angle_alpha   120.15113923
_cell_angle_beta   90.26196708
_cell_angle_gamma   59.84806861
_symmetry_Int_Tables_number   1
_chemical_formula_structural   Mg(FeS2)2
_chemical_formula_sum   'Mg2 Fe4 S8'
_cell_volume   282.39961609
_cell_formula_units_Z   2
loop_
 _symmetry_equiv_pos_site_id
 _symmetry_equiv_pos_as_xyz
  1  'x, y, z'
loop_
 _atom_site_type_symbol
 _atom_site_label
 _atom_site_symmetry_multiplicity
 _atom_site_fract_x
 _atom_site_fract_y
 _atom_site_fract_z
 _atom_site_occupancy
  Mg  Mg0  1  0.00000000  0.99999900  0.99999900  1
  Mg  Mg1  1  0.75000000  0.50000100  0.75000100  1
  Fe  Fe2  1  0.37500000  0.25000000  0.37500000  1
  Fe  Fe3  1  0.87500000  0.75000000  0.37500000  1
  Fe  Fe4  1  0.37500000  0.75000000  0.37500000  1
  Fe  Fe5  1  0.37500000  0.25000000  0.87500000  1
  S  S6  1  0.13644100  0.27251100  0.13607200  1
  S  S7  1  0.61356000  0.77251200  0.15895000  1
  S  S8  1  0.15895400  0.22748800  0.61355800  1
  S  S9  1  0.61392900  0.77251100  0.61355700  1
  S  S10  1  0.59104500  0.27251200  0.13644300  1
  S  S11  1  0.13607100  0.72748900  0.13644300  1
  S  S12  1  0.61356000  0.22748900  0.61392800  1
  S  S13  1  0.13644000  0.72748800  0.59104900  1
loop_
 _atom_site_moment_label
 _atom_site_moment_crystalaxis_x
 _atom_site_moment_crystalaxis_y
 _atom_site_moment_crystalaxis_z
  Fe2  0.00000976  -4.00315414  -4.00315271
  Fe3  0.00000976  -4.00315414  -4.00315271
  Fe4  -0.00000976  4.00315414  4.00315271
  Fe5  -0.00000976  4.00215185  4.00215042
  S6  0.00000020  -0.08018336  -0.08018333
  S7  0.00000020  -0.08018336  -0.08018333
  S8  -0.00000020  0.08018336  0.08018333
  S9  -0.00000020  0.08018336  0.08018333
  S10  -0.00000020  0.08018336  0.08018333
  S11  -0.00000020  0.08018336  0.08018333
  S12  0.00000020  -0.08018336  -0.08018333
  S13  0.00000020  -0.08018336  -0.08018333
