# generated using pymatgen
data_MgCo2S5
_symmetry_space_group_name_H-M   'P 1'
_cell_length_a   3.71714803
_cell_length_b   6.42832674
_cell_length_c   13.22938943
_cell_angle_alpha   90.10425681
_cell_angle_beta   90.00106524
_cell_angle_gamma   90.01520713
_symmetry_Int_Tables_number   1
_chemical_formula_structural   MgCo2S5
_chemical_formula_sum   'Mg2 Co4 S10'
_cell_volume   316.11628279
_cell_formula_units_Z   2
loop_
 _symmetry_equiv_pos_site_id
 _symmetry_equiv_pos_as_xyz
  1  'x, y, z'
loop_
 _atom_site_type_symbol
 _atom_site_label
 _atom_site_symmetry_multiplicity
 _atom_site_fract_x
 _atom_site_fract_y
 _atom_site_fract_z
 _atom_site_occupancy
  Mg  Mg0  1  0.49997300  0.09560300  0.00016300  1
  Mg  Mg1  1  0.00002800  0.90439300  0.49984600  1
  Co  Co2  1  0.49992900  0.47269200  0.35254900  1
  Co  Co3  1  0.00010100  0.52692000  0.85256600  1
  Co  Co4  1  0.00005500  0.52733900  0.14746700  1
  Co  Co5  1  0.49992200  0.47306100  0.64743000  1
  S  S6  1  0.49985800  0.64124500  0.50012900  1
  S  S7  1  0.00014400  0.35876100  0.99988500  1
  S  S8  1  0.50005200  0.35736300  0.19424500  1
  S  S9  1  0.99994900  0.64263600  0.30570400  1
  S  S10  1  0.50004800  0.35737100  0.80534400  1
  S  S11  1  0.99993400  0.64265700  0.69467500  1
  S  S12  1  0.99987600  0.83786800  0.91984500  1
  S  S13  1  0.50017800  0.16213500  0.58015500  1
  S  S14  1  0.50012900  0.16178600  0.41949500  1
  S  S15  1  0.99982500  0.83816900  0.08050100  1
loop_
 _atom_site_moment_label
 _atom_site_moment_crystalaxis_x
 _atom_site_moment_crystalaxis_y
 _atom_site_moment_crystalaxis_z
  Co2  -0.00000925  -0.00088971  -0.98200122
  Co3  -0.00000923  -0.00088790  -0.98000121
  Co4  0.00000928  0.00089333  0.98600122
  Co5  0.00000919  0.00088427  0.97600121
  S8  0.00000034  0.00003262  0.03600004
  S9  -0.00000033  -0.00003171  -0.03500004
  S10  -0.00000034  -0.00003262  -0.03600004
  S11  0.00000033  0.00003171  0.03500004
  S12  -0.00000033  -0.00003171  -0.03500004
  S13  0.00000033  0.00003171  0.03500004
  S14  -0.00000033  -0.00003171  -0.03500004
  S15  0.00000034  0.00003262  0.03600004
