# generated using pymatgen
data_Li(MnS2)2
_symmetry_space_group_name_H-M   'P 1'
_cell_length_a   7.23261384
_cell_length_b   7.23272460
_cell_length_c   7.23288349
_cell_angle_alpha   90.16446898
_cell_angle_beta   58.93383500
_cell_angle_gamma   119.13278874
_symmetry_Int_Tables_number   1
_chemical_formula_structural   Li(MnS2)2
_chemical_formula_sum   'Li2 Mn4 S8'
_cell_volume   267.04520443
_cell_formula_units_Z   2
loop_
 _symmetry_equiv_pos_site_id
 _symmetry_equiv_pos_as_xyz
  1  'x, y, z'
loop_
 _atom_site_type_symbol
 _atom_site_label
 _atom_site_symmetry_multiplicity
 _atom_site_fract_x
 _atom_site_fract_y
 _atom_site_fract_z
 _atom_site_occupancy
  Li  Li0  1  0.99999900  0.49999900  0.00000000  1
  Li  Li1  1  0.50000000  0.00000000  0.00000000  1
  Mn  Mn2  1  0.50000000  0.50000000  0.00000000  1
  Mn  Mn3  1  0.50000000  0.49999900  0.50000000  1
  Mn  Mn4  1  0.00000000  0.50000000  0.50000000  1
  Mn  Mn5  1  0.00000000  0.00000000  0.50000000  1
  S  S6  1  0.97605400  0.72820300  0.74783800  1
  S  S7  1  0.50626000  0.73810700  0.75554600  1
  S  S8  1  0.52395800  0.27608100  0.74787800  1
  S  S9  1  0.00628000  0.26182900  0.73185200  1
  S  S10  1  0.47604200  0.72391800  0.25212300  1
  S  S11  1  0.49374000  0.26189400  0.24445300  1
  S  S12  1  0.99371900  0.73817200  0.26814900  1
  S  S13  1  0.02394800  0.27179700  0.25216100  1
loop_
 _atom_site_moment_label
 _atom_site_moment_crystalaxis_x
 _atom_site_moment_crystalaxis_y
 _atom_site_moment_crystalaxis_z
  Li0  -0.00007641  -0.00002051  0.00503905
  Li1  -0.00007641  -0.00002051  0.00503905
  Mn2  -0.06048654  -0.01623572  3.98891413
  Mn3  -0.06672163  -0.01790934  4.40010083
  Mn4  -0.06044069  -0.01622341  3.98589069
  Mn5  -0.06672163  -0.01790934  4.40010083
  S6  0.00475273  0.00127572  -0.31342908
  S7  0.00398863  0.00107062  -0.26303855
  S8  0.00476801  0.00127982  -0.31443689
  S9  0.00398863  0.00107062  -0.26303855
  S10  0.00476801  0.00127982  -0.31443689
  S11  0.00398863  0.00107062  -0.26303855
  S12  0.00398863  0.00107062  -0.26303855
  S13  0.00475273  0.00127572  -0.31342908
