# generated using pymatgen
data_Ca(FeS2)4
_symmetry_space_group_name_H-M   'P 1'
_cell_length_a   7.18578153
_cell_length_b   7.18576854
_cell_length_c   7.21542034
_cell_angle_alpha   61.46540998
_cell_angle_beta   61.46576721
_cell_angle_gamma   61.77837670
_symmetry_Int_Tables_number   1
_chemical_formula_structural   Ca(FeS2)4
_chemical_formula_sum   'Ca1 Fe4 S8'
_cell_volume   272.72129448
_cell_formula_units_Z   1
loop_
 _symmetry_equiv_pos_site_id
 _symmetry_equiv_pos_as_xyz
  1  'x, y, z'
loop_
 _atom_site_type_symbol
 _atom_site_label
 _atom_site_symmetry_multiplicity
 _atom_site_fract_x
 _atom_site_fract_y
 _atom_site_fract_z
 _atom_site_occupancy
  Ca  Ca0  1  0.00000100  0.00000000  0.00000000  1
  Fe  Fe1  1  0.49999900  0.99999900  0.50000100  1
  Fe  Fe2  1  0.99999900  0.50000000  0.50000100  1
  Fe  Fe3  1  0.50000100  0.50000000  0.50000000  1
  Fe  Fe4  1  0.50000000  0.50000200  0.99999900  1
  S  S5  1  0.73611100  0.73611500  0.74531900  1
  S  S6  1  0.26388900  0.26388700  0.25468100  1
  S  S7  1  0.73967700  0.28361900  0.73411400  1
  S  S8  1  0.73609400  0.73609500  0.28255200  1
  S  S9  1  0.28361800  0.73967300  0.73411400  1
  S  S10  1  0.26390600  0.26390600  0.71744800  1
  S  S11  1  0.71638000  0.26032500  0.26588500  1
  S  S12  1  0.26032300  0.71638100  0.26588600  1
loop_
 _atom_site_moment_label
 _atom_site_moment_crystalaxis_x
 _atom_site_moment_crystalaxis_y
 _atom_site_moment_crystalaxis_z
  Ca0  0.00040279  0.00040263  0.04161134
  Fe1  -0.03679772  -0.03678286  -3.80149295
  Fe2  -0.03679772  -0.03678286  -3.80149295
  Fe3  0.03800609  0.03799074  3.92632697
  Fe4  0.03662510  0.03661031  3.78365952
  S5  -0.00057541  -0.00057518  -0.05944477
  S6  -0.00057541  -0.00057518  -0.05944477
  S7  0.00105493  0.00105450  0.10898208
  S8  0.00000959  0.00000959  0.00099075
  S9  0.00105493  0.00105450  0.10898208
  S10  0.00000959  0.00000959  0.00099075
  S11  0.00105493  0.00105450  0.10898208
  S12  0.00105493  0.00105450  0.10898208
