# generated using pymatgen
data_Ca(CrS2)2
_symmetry_space_group_name_H-M   'P 1'
_cell_length_a   7.39632000
_cell_length_b   7.58960058
_cell_length_c   7.39633100
_cell_angle_alpha   60.83892074
_cell_angle_beta   89.99694788
_cell_angle_gamma   119.15984811
_symmetry_Int_Tables_number   1
_chemical_formula_structural   Ca(CrS2)2
_chemical_formula_sum   'Ca2 Cr4 S8'
_cell_volume   300.87538968
_cell_formula_units_Z   2
loop_
 _symmetry_equiv_pos_site_id
 _symmetry_equiv_pos_as_xyz
  1  'x, y, z'
loop_
 _atom_site_type_symbol
 _atom_site_label
 _atom_site_symmetry_multiplicity
 _atom_site_fract_x
 _atom_site_fract_y
 _atom_site_fract_z
 _atom_site_occupancy
  Ca  Ca0  1  0.50000000  0.00000000  0.49999900  1
  Ca  Ca1  1  0.25000000  0.50000100  0.25000000  1
  Cr  Cr2  1  0.87500100  0.24999800  0.87500300  1
  Cr  Cr3  1  0.87500100  0.75000100  0.87500400  1
  Cr  Cr4  1  0.37499500  0.24999600  0.87500100  1
  Cr  Cr5  1  0.87500200  0.75000500  0.37499500  1
  S  S6  1  0.10021900  0.20042100  0.11952800  1
  S  S7  1  0.11952800  0.79957900  0.10021900  1
  S  S8  1  0.68004200  0.79956900  0.10022300  1
  S  S9  1  0.64978200  0.29957700  0.63047400  1
  S  S10  1  0.64977600  0.29956800  0.06995800  1
  S  S11  1  0.63047200  0.70042100  0.64978000  1
  S  S12  1  0.10022400  0.20043200  0.68004000  1
  S  S13  1  0.06995900  0.70043100  0.64977600  1
loop_
 _atom_site_moment_label
 _atom_site_moment_crystalaxis_x
 _atom_site_moment_crystalaxis_y
 _atom_site_moment_crystalaxis_z
  Ca0  -0.00000008  -0.00000005  0.00200002
  Ca1  -0.00000008  -0.00000005  0.00200002
  Cr2  -0.00012209  -0.00007618  3.19003713
  Cr3  -0.00012209  -0.00007618  3.19003713
  Cr4  -0.00012205  -0.00007616  3.18903711
  Cr5  -0.00012209  -0.00007618  3.19003713
  S6  0.00000520  0.00000325  -0.13600158
  S7  0.00000520  0.00000325  -0.13600158
  S8  0.00000520  0.00000325  -0.13600158
  S9  0.00000520  0.00000325  -0.13600158
  S10  0.00000520  0.00000325  -0.13600158
  S11  0.00000520  0.00000325  -0.13600158
  S12  0.00000520  0.00000325  -0.13600158
  S13  0.00000520  0.00000325  -0.13600158
