# generated using pymatgen
data_Ca(FeS2)2
_symmetry_space_group_name_H-M   'P 1'
_cell_length_a   7.40714659
_cell_length_b   7.41336438
_cell_length_c   7.41331773
_cell_angle_alpha   91.66300854
_cell_angle_beta   120.23840827
_cell_angle_gamma   59.76160340
_symmetry_Int_Tables_number   1
_chemical_formula_structural   Ca(FeS2)2
_chemical_formula_sum   'Ca2 Fe4 S8'
_cell_volume   289.75739871
_cell_formula_units_Z   2
loop_
 _symmetry_equiv_pos_site_id
 _symmetry_equiv_pos_as_xyz
  1  'x, y, z'
loop_
 _atom_site_type_symbol
 _atom_site_label
 _atom_site_symmetry_multiplicity
 _atom_site_fract_x
 _atom_site_fract_y
 _atom_site_fract_z
 _atom_site_occupancy
  Ca  Ca0  1  0.00000000  0.00000000  0.00000000  1
  Ca  Ca1  1  0.50000000  0.50000100  0.50000000  1
  Fe  Fe2  1  0.50000000  0.50000000  0.00000000  1
  Fe  Fe3  1  0.00000100  0.49999900  0.49999900  1
  Fe  Fe4  1  0.00000000  0.50000000  0.00000000  1
  Fe  Fe5  1  0.50000000  0.00000000  0.00000000  1
  S  S6  1  0.02695600  0.70842100  0.76180200  1
  S  S7  1  0.47304700  0.26180400  0.20841900  1
  S  S8  1  0.52695300  0.73819600  0.79158100  1
  S  S9  1  0.97304300  0.29157800  0.23819700  1
  S  S10  1  0.02359200  0.25521000  0.75699800  1
  S  S11  1  0.52358600  0.74300300  0.24478800  1
  S  S12  1  0.97641100  0.74479000  0.24300300  1
  S  S13  1  0.47641300  0.25699900  0.75521200  1
loop_
 _atom_site_moment_label
 _atom_site_moment_crystalaxis_x
 _atom_site_moment_crystalaxis_y
 _atom_site_moment_crystalaxis_z
  Ca0  -0.03887454  0.00010215  -0.03949682
  Ca1  0.03887454  -0.00010215  0.03949682
  Fe2  -3.94327341  0.01036180  -4.00639500
  Fe3  -3.97018655  0.01043252  -4.03373895
  Fe4  3.94327341  -0.01036180  4.00639500
  Fe5  3.97018655  -0.01043252  4.03373895
  S6  -0.08073942  0.00021216  -0.08203185
  S7  0.08073942  -0.00021216  0.08203185
  S8  0.08073942  -0.00021216  0.08203185
  S9  -0.08073942  0.00021216  -0.08203185
  S10  0.09070725  -0.00023835  0.09215924
  S11  -0.09070725  0.00023835  -0.09215924
  S12  0.09070725  -0.00023835  0.09215924
  S13  -0.09070725  0.00023835  -0.09215924
