# generated using pymatgen
data_Mg(NiS2)4
_symmetry_space_group_name_H-M   'P 1'
_cell_length_a   6.82651131
_cell_length_b   11.78641224
_cell_length_c   7.22543770
_cell_angle_alpha   105.93186125
_cell_angle_beta   118.18899255
_cell_angle_gamma   90.00179680
_symmetry_Int_Tables_number   1
_chemical_formula_structural   Mg(NiS2)4
_chemical_formula_sum   'Mg2 Ni8 S16'
_cell_volume   486.92116606
_cell_formula_units_Z   2
loop_
 _symmetry_equiv_pos_site_id
 _symmetry_equiv_pos_as_xyz
  1  'x, y, z'
loop_
 _atom_site_type_symbol
 _atom_site_label
 _atom_site_symmetry_multiplicity
 _atom_site_fract_x
 _atom_site_fract_y
 _atom_site_fract_z
 _atom_site_occupancy
  Mg  Mg0  1  0.24992600  0.75000500  0.49999500  1
  Mg  Mg1  1  0.74993300  0.24999000  0.50000400  1
  Ni  Ni2  1  0.99999300  0.00000000  0.99999500  1
  Ni  Ni3  1  0.49993500  0.49999800  0.99999700  1
  Ni  Ni4  1  0.75001500  0.75009000  0.00006600  1
  Ni  Ni5  1  0.50018100  0.99999300  0.99999600  1
  Ni  Ni6  1  0.74993100  0.24987800  0.99990100  1
  Ni  Ni7  1  0.25004100  0.24992000  0.99998500  1
  Ni  Ni8  1  0.99995500  0.50000500  0.00001200  1
  Ni  Ni9  1  0.25005100  0.75009200  0.00003400  1
  S  S10  1  0.40236700  0.13363600  0.80457100  1
  S  S11  1  0.90226400  0.63386500  0.80475800  1
  S  S12  1  0.09752400  0.36613900  0.19523500  1
  S  S13  1  0.59782200  0.86636700  0.19543600  1
  S  S14  1  0.15631300  0.87875200  0.79064500  1
  S  S15  1  0.65597200  0.37855300  0.79055700  1
  S  S16  1  0.86541100  0.62145000  0.20943700  1
  S  S17  1  0.36567300  0.12125100  0.20934800  1
  S  S18  1  0.34372900  0.62140900  0.20932800  1
  S  S19  1  0.84392900  0.12132700  0.20945300  1
  S  S20  1  0.10477100  0.86160600  0.20972800  1
  S  S21  1  0.60499500  0.36148600  0.20966700  1
  S  S22  1  0.39532600  0.63851900  0.79034300  1
  S  S23  1  0.89507400  0.13840400  0.79028500  1
  S  S24  1  0.63446300  0.87867400  0.79054400  1
  S  S25  1  0.13440500  0.37859200  0.79068100  1
loop_
 _atom_site_moment_label
 _atom_site_moment_crystalaxis_x
 _atom_site_moment_crystalaxis_y
 _atom_site_moment_crystalaxis_z
  Mg0  -0.00941606  -0.01648499  -0.01993235
  Mg1  -0.00941606  -0.01648499  -0.01993235
  Ni2  -0.73727712  -1.29077508  -1.56070312
  Ni3  -0.73727712  -1.29077508  -1.56070312
  Ni4  -0.38087943  -0.66681803  -0.80626362
  Ni5  -0.34274441  -0.60005380  -0.72553759
  Ni6  -0.38135023  -0.66764228  -0.80726024
  Ni7  -0.38417505  -0.67258778  -0.81323994
  Ni8  -0.34792324  -0.60912055  -0.73650039
  Ni9  -0.38417505  -0.67258778  -0.81323994
  S10  0.11817149  0.20688668  0.25015101
  S11  0.11911310  0.20853518  0.25214425
  S12  0.11911310  0.20853518  0.25214425
  S13  0.11817149  0.20688668  0.25015101
  S14  0.06449998  0.11292221  0.13653661
  S15  0.06449998  0.11292221  0.13653661
  S16  0.06449998  0.11292221  0.13653661
  S17  0.06449998  0.11292221  0.13653661
  S18  0.06497078  0.11374646  0.13753323
  S19  0.06402918  0.11209796  0.13553999
  S20  0.06779560  0.11869196  0.14351293
  S21  0.06779560  0.11869196  0.14351293
  S22  0.06779560  0.11869196  0.14351293
  S23  0.06779560  0.11869196  0.14351293
  S24  0.06402918  0.11209796  0.13553999
  S25  0.06497078  0.11374646  0.13753323
