# generated using pymatgen
data_Ca(NiS2)4
_symmetry_space_group_name_H-M   'P 1'
_cell_length_a   7.12415728
_cell_length_b   10.03247083
_cell_length_c   7.18523963
_cell_angle_alpha   90.00916758
_cell_angle_beta   89.99206673
_cell_angle_gamma   91.29893510
_symmetry_Int_Tables_number   1
_chemical_formula_structural   Ca(NiS2)4
_chemical_formula_sum   'Ca2 Ni8 S16'
_cell_volume   513.41793700
_cell_formula_units_Z   2
loop_
 _symmetry_equiv_pos_site_id
 _symmetry_equiv_pos_as_xyz
  1  'x, y, z'
loop_
 _atom_site_type_symbol
 _atom_site_label
 _atom_site_symmetry_multiplicity
 _atom_site_fract_x
 _atom_site_fract_y
 _atom_site_fract_z
 _atom_site_occupancy
  Ca  Ca0  1  0.99984600  0.99978400  0.99978300  1
  Ca  Ca1  1  0.49997000  0.49990600  0.50047300  1
  Ni  Ni2  1  0.49998300  0.00007200  0.49989100  1
  Ni  Ni3  1  0.00007300  0.49983500  0.00071800  1
  Ni  Ni4  1  0.74940400  0.24990000  0.75045600  1
  Ni  Ni5  1  0.25097400  0.75008900  0.24956500  1
  Ni  Ni6  1  0.74904100  0.24983300  0.24905900  1
  Ni  Ni7  1  0.25088800  0.75023900  0.75074100  1
  Ni  Ni8  1  0.49997700  0.49994500  0.00006300  1
  Ni  Ni9  1  0.99978300  0.00008000  0.49973200  1
  S  S10  1  0.46775700  0.73438900  0.00019300  1
  S  S11  1  0.96416100  0.23321700  0.49945700  1
  S  S12  1  0.53246500  0.26563900  0.99955600  1
  S  S13  1  0.03591700  0.76701700  0.50004100  1
  S  S14  1  0.25097300  0.51574900  0.21967500  1
  S  S15  1  0.75141000  0.01536500  0.71952800  1
  S  S16  1  0.25061900  0.51580000  0.78114700  1
  S  S17  1  0.75110300  0.01509600  0.27971200  1
  S  S18  1  0.03316200  0.73456300  0.00033400  1
  S  S19  1  0.53227300  0.23551900  0.49971700  1
  S  S20  1  0.74899400  0.48413900  0.21956200  1
  S  S21  1  0.24832600  0.98501400  0.71947600  1
  S  S22  1  0.96708600  0.26504300  0.99991000  1
  S  S23  1  0.46793100  0.76444400  0.50013100  1
  S  S24  1  0.74943200  0.48439500  0.78104700  1
  S  S25  1  0.24844600  0.98492600  0.28002900  1
loop_
 _atom_site_moment_label
 _atom_site_moment_crystalaxis_x
 _atom_site_moment_crystalaxis_y
 _atom_site_moment_crystalaxis_z
  Ca0  -0.00907534  -0.01283147  -0.00907114
  Ca1  0.00252093  0.00356430  0.00251976
  Ni2  -0.80165514  -1.13344669  -0.80128369
  Ni3  0.75930355  1.07356649  0.75895173
  Ni4  0.56267116  0.79555126  0.56241044
  Ni5  0.56216697  0.79483840  0.56190649
  Ni6  0.56166278  0.79412554  0.56140254
  Ni7  0.56418371  0.79768984  0.56392230
  Ni8  0.58031765  0.82050135  0.58004876
  Ni9  0.56519208  0.79911556  0.56493020
  S10  -0.18503612  -0.26161946  -0.18495039
  S11  -0.19209472  -0.27159949  -0.19200572
  S12  -0.18503612  -0.26161946  -0.18495039
  S13  -0.19259891  -0.27231235  -0.19250967
  S14  -0.10184550  -0.14399763  -0.10179831
  S15  -0.14167616  -0.20031353  -0.14161051
  S16  -0.10285387  -0.14542335  -0.10280621
  S17  -0.14218035  -0.20102639  -0.14211447
  S18  -0.09831620  -0.13900761  -0.09827064
  S19  -0.14318872  -0.20245211  -0.14312237
  S20  -0.10285387  -0.14542335  -0.10280621
  S21  -0.14218035  -0.20102639  -0.14211447
  S22  -0.09831620  -0.13900761  -0.09827064
  S23  -0.14268453  -0.20173925  -0.14261842
  S24  -0.10285387  -0.14542335  -0.10280621
  S25  -0.14167616  -0.20031353  -0.14161051
