# generated using pymatgen
data_Ca(VS2)4
_symmetry_space_group_name_H-M   'P 1'
_cell_length_a   7.33159707
_cell_length_b   7.21283575
_cell_length_c   7.31496841
_cell_angle_alpha   59.78655592
_cell_angle_beta   60.65888876
_cell_angle_gamma   59.80336777
_symmetry_Int_Tables_number   1
_chemical_formula_structural   Ca(VS2)4
_chemical_formula_sum   'Ca1 V4 S8'
_cell_volume   274.00057414
_cell_formula_units_Z   1
loop_
 _symmetry_equiv_pos_site_id
 _symmetry_equiv_pos_as_xyz
  1  'x, y, z'
loop_
 _atom_site_type_symbol
 _atom_site_label
 _atom_site_symmetry_multiplicity
 _atom_site_fract_x
 _atom_site_fract_y
 _atom_site_fract_z
 _atom_site_occupancy
  Ca  Ca0  1  0.99999600  0.00000200  0.99998200  1
  V  V1  1  0.49997100  0.50003000  0.49995100  1
  V  V2  1  0.49994700  0.49999300  0.00005500  1
  V  V3  1  0.50003000  0.99998000  0.50002100  1
  V  V4  1  0.00008800  0.50004200  0.49997000  1
  S  S5  1  0.73788200  0.27856800  0.73796700  1
  S  S6  1  0.73181200  0.74470900  0.27852400  1
  S  S7  1  0.27920500  0.74443900  0.73153700  1
  S  S8  1  0.73447800  0.74879700  0.73462900  1
  S  S9  1  0.26547600  0.25119100  0.26542900  1
  S  S10  1  0.26819500  0.25529100  0.72147900  1
  S  S11  1  0.72079900  0.25554300  0.26844900  1
  S  S12  1  0.26211900  0.72141600  0.26200700  1
loop_
 _atom_site_moment_label
 _atom_site_moment_crystalaxis_x
 _atom_site_moment_crystalaxis_y
 _atom_site_moment_crystalaxis_z
  Ca0  -0.00001515  0.00001030  -0.00499774
  V1  0.00581010  -0.00394735  1.91613274
  V2  0.00599801  -0.00407502  1.97810470
  V3  0.00377338  -0.00256362  1.24443676
  V4  0.00600710  -0.00408119  1.98110334
  S5  -0.00041825  0.00028416  -0.13793757
  S6  -0.00036673  0.00024915  -0.12094526
  S7  -0.00036370  0.00024710  -0.11994571
  S8  -0.00060920  0.00041389  -0.20090907
  S9  -0.00060920  0.00041389  -0.20090907
  S10  -0.00036370  0.00024710  -0.11994571
  S11  -0.00036370  0.00024710  -0.11994571
  S12  -0.00041825  0.00028416  -0.13793757
