# generated using pymatgen
data_Mg(MnS2)4
_symmetry_space_group_name_H-M   'P 1'
_cell_length_a   7.16483428
_cell_length_b   7.16484805
_cell_length_c   7.35939556
_cell_angle_alpha   60.86665671
_cell_angle_beta   60.86653878
_cell_angle_gamma   60.00209725
_symmetry_Int_Tables_number   1
_chemical_formula_structural   Mg(MnS2)4
_chemical_formula_sum   'Mg1 Mn4 S8'
_cell_volume   270.59109916
_cell_formula_units_Z   1
loop_
 _symmetry_equiv_pos_site_id
 _symmetry_equiv_pos_as_xyz
  1  'x, y, z'
loop_
 _atom_site_type_symbol
 _atom_site_label
 _atom_site_symmetry_multiplicity
 _atom_site_fract_x
 _atom_site_fract_y
 _atom_site_fract_z
 _atom_site_occupancy
  Mg  Mg0  1  0.00000000  0.00000000  0.00000000  1
  Mn  Mn1  1  0.50000000  0.50000000  0.50000000  1
  Mn  Mn2  1  0.00000000  0.50000000  0.00000000  1
  Mn  Mn3  1  0.50000000  0.00000000  0.00000000  1
  Mn  Mn4  1  0.50000000  0.50000000  0.00000000  1
  S  S5  1  0.75077200  0.27316400  0.22528100  1
  S  S6  1  0.27316900  0.75077800  0.22527500  1
  S  S7  1  0.75077800  0.75079000  0.22527000  1
  S  S8  1  0.73778500  0.73779600  0.78664600  1
  S  S9  1  0.26221600  0.26220500  0.21335400  1
  S  S10  1  0.72683100  0.24922200  0.77472600  1
  S  S11  1  0.24922100  0.24921000  0.77472900  1
  S  S12  1  0.24922800  0.72683500  0.77472000  1
loop_
 _atom_site_moment_label
 _atom_site_moment_crystalaxis_x
 _atom_site_moment_crystalaxis_y
 _atom_site_moment_crystalaxis_z
  Mg0  0.00019236  0.00019238  0.01981079
  Mn1  0.04386846  0.04387218  4.51785101
  Mn2  0.03835725  0.03836050  3.95027183
  Mn3  0.03835725  0.03836050  3.95027183
  Mn4  0.03835725  0.03836050  3.95027183
  S5  -0.00230836  -0.00230856  -0.23772950
  S6  -0.00231798  -0.00231817  -0.23872004
  S7  -0.00232760  -0.00232779  -0.23971058
  S8  -0.00360681  -0.00360712  -0.37145234
  S9  -0.00360681  -0.00360712  -0.37145234
  S10  -0.00231798  -0.00231817  -0.23872004
  S11  -0.00232760  -0.00232779  -0.23971058
  S12  -0.00230836  -0.00230856  -0.23772950
