# generated using pymatgen
data_CrSe2
_symmetry_space_group_name_H-M   'P 1'
_cell_length_a   7.21478202
_cell_length_b   7.21462195
_cell_length_c   7.21477301
_cell_angle_alpha   60.00024025
_cell_angle_beta   59.99616415
_cell_angle_gamma   60.00072387
_symmetry_Int_Tables_number   1
_chemical_formula_structural   CrSe2
_chemical_formula_sum   'Cr4 Se8'
_cell_volume   265.54311140
_cell_formula_units_Z   4
loop_
 _symmetry_equiv_pos_site_id
 _symmetry_equiv_pos_as_xyz
  1  'x, y, z'
loop_
 _atom_site_type_symbol
 _atom_site_label
 _atom_site_symmetry_multiplicity
 _atom_site_fract_x
 _atom_site_fract_y
 _atom_site_fract_z
 _atom_site_occupancy
  Cr  Cr0  1  0.62499700  0.62499600  0.12501100  1
  Cr  Cr1  1  0.62499500  0.12501200  0.62499500  1
  Cr  Cr2  1  0.62499600  0.62499800  0.62499500  1
  Cr  Cr3  1  0.12501100  0.62499500  0.62499800  1
  Se  Se4  1  0.37615700  0.37612800  0.37616200  1
  Se  Se5  1  0.37839700  0.87384600  0.87390000  1
  Se  Se6  1  0.87385100  0.37839800  0.87385700  1
  Se  Se7  1  0.87390000  0.87385800  0.37839600  1
  Se  Se8  1  0.37616100  0.87155400  0.37615700  1
  Se  Se9  1  0.37612200  0.37615800  0.87155600  1
  Se  Se10  1  0.87155500  0.37616400  0.37612200  1
  Se  Se11  1  0.87385700  0.87389300  0.87385000  1
loop_
 _atom_site_moment_label
 _atom_site_moment_crystalaxis_x
 _atom_site_moment_crystalaxis_y
 _atom_site_moment_crystalaxis_z
  Cr0  -0.00014934  0.00007954  3.14503490
  Cr1  -0.00014938  0.00007957  3.14603491
  Cr2  -0.00014948  0.00007962  3.14803494
  Cr3  -0.00014934  0.00007954  3.14503490
  Se4  0.00001244  -0.00000663  -0.26200291
  Se5  0.00001235  -0.00000658  -0.26000289
  Se6  0.00001244  -0.00000663  -0.26200291
  Se7  0.00001235  -0.00000658  -0.26000289
  Se8  0.00001244  -0.00000663  -0.26200291
  Se9  0.00001235  -0.00000658  -0.26000289
  Se10  0.00001235  -0.00000658  -0.26000289
  Se11  0.00001244  -0.00000663  -0.26200291
