# generated using pymatgen
data_Ca(NiS2)2
_symmetry_space_group_name_H-M   'P 1'
_cell_length_a   7.28267728
_cell_length_b   7.31918464
_cell_length_c   10.42918950
_cell_angle_alpha   91.33937269
_cell_angle_beta   91.78272616
_cell_angle_gamma   88.88259479
_symmetry_Int_Tables_number   1
_chemical_formula_structural   Ca(NiS2)2
_chemical_formula_sum   'Ca4 Ni8 S16'
_cell_volume   555.39086504
_cell_formula_units_Z   4
loop_
 _symmetry_equiv_pos_site_id
 _symmetry_equiv_pos_as_xyz
  1  'x, y, z'
loop_
 _atom_site_type_symbol
 _atom_site_label
 _atom_site_symmetry_multiplicity
 _atom_site_fract_x
 _atom_site_fract_y
 _atom_site_fract_z
 _atom_site_occupancy
  Ca  Ca0  1  0.99985900  0.00013700  0.00001000  1
  Ca  Ca1  1  0.50010000  0.49990900  0.50002100  1
  Ca  Ca2  1  0.75123000  0.74988600  0.24946800  1
  Ca  Ca3  1  0.24877300  0.25013600  0.75053100  1
  Ni  Ni4  1  0.50004000  0.99975100  0.49984700  1
  Ni  Ni5  1  0.00038500  0.50002200  0.00039900  1
  Ni  Ni6  1  0.25136500  0.25028700  0.25028500  1
  Ni  Ni7  1  0.74849800  0.74998000  0.74952700  1
  Ni  Ni8  1  0.25170300  0.75019400  0.25099200  1
  Ni  Ni9  1  0.74811800  0.24973000  0.74891500  1
  Ni  Ni10  1  0.49990200  0.50007000  0.00001200  1
  Ni  Ni11  1  0.00010700  0.99984600  0.49999900  1
  S  S12  1  0.24421500  0.71226200  0.02326500  1
  S  S13  1  0.74241600  0.21070800  0.52054400  1
  S  S14  1  0.25771300  0.78901800  0.47936100  1
  S  S15  1  0.75564700  0.28803800  0.97673300  1
  S  S16  1  0.25033000  0.27407200  0.01263700  1
  S  S17  1  0.74862500  0.77535900  0.51176300  1
  S  S18  1  0.25155500  0.22440500  0.48822300  1
  S  S19  1  0.74946100  0.72621300  0.98742300  1
  S  S20  1  0.04014700  0.50709300  0.22880500  1
  S  S21  1  0.53653900  0.00601600  0.72707400  1
  S  S22  1  0.46344700  0.99390300  0.27282800  1
  S  S23  1  0.95981800  0.49292200  0.77130500  1
  S  S24  1  0.02267600  0.00274600  0.26235300  1
  S  S25  1  0.51925200  0.50324600  0.76176100  1
  S  S26  1  0.48069900  0.49682300  0.23827800  1
  S  S27  1  0.97738100  0.99722800  0.73764100  1
loop_
 _atom_site_moment_label
 _atom_site_moment_crystalaxis_x
 _atom_site_moment_crystalaxis_y
 _atom_site_moment_crystalaxis_z
  Ca0  -0.00007154  0.02699468  -0.00023884
  Ca1  -0.00007154  0.02699468  -0.00023884
  Ca2  -0.00007154  0.02699468  -0.00023884
  Ca3  -0.00007154  0.02699468  -0.00023884
  Ni4  -0.00298340  1.12577818  -0.00996056
  Ni5  -0.00318476  1.20176321  -0.01063286
  Ni6  -0.00425518  1.60568363  -0.01420663
  Ni7  -0.00425518  1.60568363  -0.01420663
  Ni8  -0.00324040  1.22275908  -0.01081862
  Ni9  -0.00324570  1.22475868  -0.01083631
  Ni10  -0.00425253  1.60468382  -0.01419778
  Ni11  -0.00425518  1.60568363  -0.01420663
  S12  0.00056965  -0.21495765  0.00190188
  S13  0.00055376  -0.20895883  0.00184881
  S14  0.00055376  -0.20895883  0.00184881
  S15  0.00057495  -0.21695725  0.00191958
  S16  0.00015632  -0.05898838  0.00052191
  S17  0.00015897  -0.05998818  0.00053076
  S18  0.00016162  -0.06098798  0.00053960
  S19  0.00015897  -0.05998818  0.00053076
  S20  0.00055906  -0.21095843  0.00186650
  S21  0.00055376  -0.20895883  0.00184881
  S22  0.00055376  -0.20895883  0.00184881
  S23  0.00056436  -0.21295804  0.00188419
  S24  0.00016957  -0.06398739  0.00056614
  S25  0.00016692  -0.06298759  0.00055730
  S26  0.00016692  -0.06298759  0.00055730
  S27  0.00016957  -0.06398739  0.00056614
