# generated using pymatgen
data_Mg(CrS2)4
_symmetry_space_group_name_H-M   'P 1'
_cell_length_a   6.90763888
_cell_length_b   6.90732131
_cell_length_c   7.26055483
_cell_angle_alpha   61.62107781
_cell_angle_beta   61.62365651
_cell_angle_gamma   60.02441682
_symmetry_Int_Tables_number   1
_chemical_formula_structural   Mg(CrS2)4
_chemical_formula_sum   'Mg1 Cr4 S8'
_cell_volume   250.84377528
_cell_formula_units_Z   1
loop_
 _symmetry_equiv_pos_site_id
 _symmetry_equiv_pos_as_xyz
  1  'x, y, z'
loop_
 _atom_site_type_symbol
 _atom_site_label
 _atom_site_symmetry_multiplicity
 _atom_site_fract_x
 _atom_site_fract_y
 _atom_site_fract_z
 _atom_site_occupancy
  Mg  Mg0  1  0.50000000  0.50000000  0.50000000  1
  Cr  Cr1  1  0.50000000  0.00000000  0.00000000  1
  Cr  Cr2  1  0.50000000  0.50000000  0.00000000  1
  Cr  Cr3  1  0.00000000  0.50000000  0.00000000  1
  Cr  Cr4  1  0.00000000  0.00000000  0.00000000  1
  S  S5  1  0.75757000  0.25810500  0.22680200  1
  S  S6  1  0.74188900  0.24242300  0.77320500  1
  S  S7  1  0.24243100  0.74189500  0.77319900  1
  S  S8  1  0.24246000  0.24244300  0.77317600  1
  S  S9  1  0.25874700  0.25873700  0.22380300  1
  S  S10  1  0.74125400  0.74126300  0.77619600  1
  S  S11  1  0.75754000  0.75755700  0.22682400  1
  S  S12  1  0.25811100  0.75757900  0.22679500  1
loop_
 _atom_site_moment_label
 _atom_site_moment_crystalaxis_x
 _atom_site_moment_crystalaxis_y
 _atom_site_moment_crystalaxis_z
  Mg0  0.00000229  0.00000226  0.00199784
  Cr1  0.00349528  0.00344148  3.04869896
  Cr2  0.00349528  0.00344148  3.04869896
  Cr3  0.00349528  0.00344148  3.04869896
  Cr4  0.00351131  0.00345727  3.06268382
  S5  -0.00023706  -0.00023342  -0.20677611
  S6  -0.00023706  -0.00023342  -0.20677611
  S7  -0.00023706  -0.00023342  -0.20677611
  S8  -0.00023706  -0.00023342  -0.20677611
  S9  -0.00039740  -0.00039128  -0.34662469
  S10  -0.00039740  -0.00039128  -0.34662469
  S11  -0.00023706  -0.00023342  -0.20677611
  S12  -0.00023706  -0.00023342  -0.20677611
