# generated using pymatgen
data_Mg(VS2)2
_symmetry_space_group_name_H-M   'P 1'
_cell_length_a   7.33581154
_cell_length_b   7.37750607
_cell_length_c   7.36261750
_cell_angle_alpha   60.42302645
_cell_angle_beta   60.04883313
_cell_angle_gamma   60.14070247
_symmetry_Int_Tables_number   1
_chemical_formula_structural   Mg(VS2)2
_chemical_formula_sum   'Mg2 V4 S8'
_cell_volume   283.05333226
_cell_formula_units_Z   2
loop_
 _symmetry_equiv_pos_site_id
 _symmetry_equiv_pos_as_xyz
  1  'x, y, z'
loop_
 _atom_site_type_symbol
 _atom_site_label
 _atom_site_symmetry_multiplicity
 _atom_site_fract_x
 _atom_site_fract_y
 _atom_site_fract_z
 _atom_site_occupancy
  Mg  Mg0  1  0.75024200  0.74937800  0.74994600  1
  Mg  Mg1  1  0.99975300  0.00062300  0.00004900  1
  V  V2  1  0.37500900  0.87499300  0.37501000  1
  V  V3  1  0.87500400  0.37500700  0.37499600  1
  V  V4  1  0.37498000  0.37500700  0.87500000  1
  V  V5  1  0.37501600  0.37499500  0.37500600  1
  S  S6  1  0.61449600  0.15640700  0.61493000  1
  S  S7  1  0.59265400  0.13550700  0.13551500  1
  S  S8  1  0.13703500  0.13466500  0.13547200  1
  S  S9  1  0.13612800  0.13455900  0.59343600  1
  S  S10  1  0.61296200  0.61532900  0.61453200  1
  S  S11  1  0.61387500  0.61544600  0.15655900  1
  S  S12  1  0.13550900  0.59359200  0.13507200  1
  S  S13  1  0.15733700  0.61449400  0.61447600  1
loop_
 _atom_site_moment_label
 _atom_site_moment_crystalaxis_x
 _atom_site_moment_crystalaxis_y
 _atom_site_moment_crystalaxis_z
  Mg0  0.00000403  0.00002372  0.00698625
  Mg1  0.00000403  0.00002372  0.00698625
  V2  0.00114411  0.00674009  1.98509207
  V3  0.00113778  0.00670281  1.97411368
  V4  0.00114239  0.00672992  1.98209797
  V5  0.00113836  0.00670620  1.97511172
  S6  -0.00003969  -0.00023382  -0.06886443
  S7  -0.00003106  -0.00018299  -0.05389390
  S8  -0.00003049  -0.00017960  -0.05289587
  S9  -0.00003681  -0.00021688  -0.06387425
  S10  -0.00003049  -0.00017960  -0.05289587
  S11  -0.00003681  -0.00021688  -0.06387425
  S12  -0.00003969  -0.00023382  -0.06886443
  S13  -0.00003106  -0.00018299  -0.05389390
