# generated using pymatgen
data_Li(CrS2)2
_symmetry_space_group_name_H-M   'P 1'
_cell_length_a   7.14349358
_cell_length_b   7.14352101
_cell_length_c   7.14340500
_cell_angle_alpha   59.99872796
_cell_angle_beta   59.99842928
_cell_angle_gamma   59.99905884
_symmetry_Int_Tables_number   1
_chemical_formula_structural   Li(CrS2)2
_chemical_formula_sum   'Li2 Cr4 S8'
_cell_volume   257.75128625
_cell_formula_units_Z   2
loop_
 _symmetry_equiv_pos_site_id
 _symmetry_equiv_pos_as_xyz
  1  'x, y, z'
loop_
 _atom_site_type_symbol
 _atom_site_label
 _atom_site_symmetry_multiplicity
 _atom_site_fract_x
 _atom_site_fract_y
 _atom_site_fract_z
 _atom_site_occupancy
  Li  Li0  1  0.75000100  0.74999900  0.75000300  1
  Li  Li1  1  0.00000000  0.00000100  0.99999700  1
  Cr  Cr2  1  0.37500000  0.37500000  0.87500100  1
  Cr  Cr3  1  0.87500100  0.37500000  0.37500000  1
  Cr  Cr4  1  0.37499900  0.37500000  0.37499900  1
  Cr  Cr5  1  0.37500000  0.87500100  0.37500000  1
  S  S6  1  0.13499900  0.13500100  0.59499400  1
  S  S7  1  0.59499300  0.13500300  0.13500000  1
  S  S8  1  0.13500300  0.13500400  0.13500200  1
  S  S9  1  0.61500700  0.61500600  0.15498500  1
  S  S10  1  0.61500500  0.15498700  0.61500700  1
  S  S11  1  0.15498700  0.61500500  0.61500700  1
  S  S12  1  0.13500200  0.59499200  0.13500000  1
  S  S13  1  0.61500200  0.61500200  0.61500500  1
loop_
 _atom_site_moment_label
 _atom_site_moment_crystalaxis_x
 _atom_site_moment_crystalaxis_y
 _atom_site_moment_crystalaxis_z
  Li0  -0.00000003  -0.00000003  0.00200003
  Li1  -0.00000003  -0.00000003  0.00200003
  Cr2  -0.00004837  -0.00004015  3.08104426
  Cr3  -0.00004837  -0.00004015  3.08104426
  Cr4  -0.00004837  -0.00004015  3.08104426
  Cr5  -0.00004839  -0.00004016  3.08204428
  S6  0.00000416  0.00000345  -0.26500381
  S7  0.00000416  0.00000345  -0.26500381
  S8  0.00000416  0.00000345  -0.26500381
  S9  0.00000416  0.00000345  -0.26500381
  S10  0.00000415  0.00000344  -0.26400379
  S11  0.00000416  0.00000345  -0.26500381
  S12  0.00000415  0.00000344  -0.26400379
  S13  0.00000416  0.00000345  -0.26500381
