# generated using pymatgen
data_Ca(VS2)2
_symmetry_space_group_name_H-M   'P 1'
_cell_length_a   7.30015701
_cell_length_b   7.77412480
_cell_length_c   7.30020906
_cell_angle_alpha   61.98347678
_cell_angle_beta   90.00183687
_cell_angle_gamma   118.00796846
_symmetry_Int_Tables_number   1
_chemical_formula_structural   Ca(VS2)2
_chemical_formula_sum   'Ca2 V4 S8'
_cell_volume   309.71885683
_cell_formula_units_Z   2
loop_
 _symmetry_equiv_pos_site_id
 _symmetry_equiv_pos_as_xyz
  1  'x, y, z'
loop_
 _atom_site_type_symbol
 _atom_site_label
 _atom_site_symmetry_multiplicity
 _atom_site_fract_x
 _atom_site_fract_y
 _atom_site_fract_z
 _atom_site_occupancy
  Ca  Ca0  1  0.50000200  0.00000200  0.49999800  1
  Ca  Ca1  1  0.25000000  0.49999700  0.25000500  1
  V  V2  1  0.87500200  0.25000300  0.87499900  1
  V  V3  1  0.87500100  0.74999900  0.87500000  1
  V  V4  1  0.37500200  0.24999900  0.87500400  1
  V  V5  1  0.87499900  0.74999100  0.37500800  1
  S  S6  1  0.09649000  0.19298300  0.13309000  1
  S  S7  1  0.13308300  0.80704400  0.09646800  1
  S  S8  1  0.67400200  0.80708300  0.09644300  1
  S  S9  1  0.65350000  0.30702000  0.61691900  1
  S  S10  1  0.65354900  0.30709000  0.07596200  1
  S  S11  1  0.61693000  0.69296200  0.65351700  1
  S  S12  1  0.09644300  0.19289300  0.67404000  1
  S  S13  1  0.07599700  0.69293500  0.65354800  1
loop_
 _atom_site_moment_label
 _atom_site_moment_crystalaxis_x
 _atom_site_moment_crystalaxis_y
 _atom_site_moment_crystalaxis_z
  Ca0  -0.00000026  -0.00000069  0.00400032
  Ca1  -0.00000026  -0.00000069  0.00400032
  V2  -0.00013145  -0.00034914  2.02716398
  V3  -0.00013145  -0.00034914  2.02716398
  V4  -0.00013145  -0.00034914  2.02716398
  V5  -0.00013145  -0.00034914  2.02716398
  S6  0.00000486  0.00001292  -0.07500607
  S7  0.00000486  0.00001292  -0.07500607
  S8  0.00000486  0.00001292  -0.07500607
  S9  0.00000486  0.00001292  -0.07500607
  S10  0.00000486  0.00001292  -0.07500607
  S11  0.00000486  0.00001292  -0.07500607
  S12  0.00000486  0.00001292  -0.07500607
  S13  0.00000486  0.00001292  -0.07500607
