# generated using pymatgen
data_Ca(NiS2)4
_symmetry_space_group_name_H-M   'P 1'
_cell_length_a   6.84786451
_cell_length_b   7.75680366
_cell_length_c   11.76218667
_cell_angle_alpha   104.89188710
_cell_angle_beta   89.98205217
_cell_angle_gamma   116.15708829
_symmetry_Int_Tables_number   1
_chemical_formula_structural   Ca(NiS2)4
_chemical_formula_sum   'Ca2 Ni8 S16'
_cell_volume   537.34198684
_cell_formula_units_Z   2
loop_
 _symmetry_equiv_pos_site_id
 _symmetry_equiv_pos_as_xyz
  1  'x, y, z'
loop_
 _atom_site_type_symbol
 _atom_site_label
 _atom_site_symmetry_multiplicity
 _atom_site_fract_x
 _atom_site_fract_y
 _atom_site_fract_z
 _atom_site_occupancy
  Ca  Ca0  1  0.24996000  0.49996300  0.75002600  1
  Ca  Ca1  1  0.74995100  0.50001800  0.24999800  1
  Ni  Ni2  1  0.49942500  0.00008300  0.00003400  1
  Ni  Ni3  1  0.24988600  0.99988000  0.75006300  1
  Ni  Ni4  1  0.25007300  0.00007900  0.25007600  1
  Ni  Ni5  1  0.99977600  0.00003900  0.00001400  1
  Ni  Ni6  1  0.50024100  0.99996100  0.49983000  1
  Ni  Ni7  1  0.00072000  0.00002800  0.49990000  1
  Ni  Ni8  1  0.74988300  0.00008700  0.25010800  1
  Ni  Ni9  1  0.75015700  0.99996900  0.74998000  1
  S  S10  1  0.08986300  0.17823500  0.36580900  1
  S  S11  1  0.58831200  0.17809000  0.86584300  1
  S  S12  1  0.41023900  0.82186900  0.13423100  1
  S  S13  1  0.91162900  0.82177500  0.63407800  1
  S  S14  1  0.09654500  0.19123400  0.86063200  1
  S  S15  1  0.59448500  0.19147100  0.36073900  1
  S  S16  1  0.16492500  0.81024900  0.88498700  1
  S  S17  1  0.66587800  0.81054500  0.38504400  1
  S  S18  1  0.40328900  0.80851200  0.63926400  1
  S  S19  1  0.90546700  0.80871400  0.13934800  1
  S  S20  1  0.64474000  0.81050400  0.88505300  1
  S  S21  1  0.14545500  0.81023000  0.38482900  1
  S  S22  1  0.85526200  0.18949500  0.61490800  1
  S  S23  1  0.35456700  0.18977900  0.11512400  1
  S  S24  1  0.33509100  0.18964200  0.61508400  1
  S  S25  1  0.83418600  0.18954900  0.11500400  1
loop_
 _atom_site_moment_label
 _atom_site_moment_crystalaxis_x
 _atom_site_moment_crystalaxis_y
 _atom_site_moment_crystalaxis_z
  Ca0  0.01495136  0.03390326  0.02619482
  Ca1  0.01451161  0.03290610  0.02542438
  Ni2  0.14995331  0.34002974  0.26271862
  Ni3  0.40544562  0.91937660  0.71034185
  Ni4  0.40544562  0.91937660  0.71034185
  Ni5  0.67413029  1.52863811  1.18107815
  Ni6  0.67413029  1.52863811  1.18107815
  Ni7  0.14907382  0.33803543  0.26117775
  Ni8  0.42479443  0.96325141  0.74424102
  Ni9  0.42787265  0.97023149  0.74963407
  S10  -0.09850306  -0.22336265  -0.17257763
  S11  -0.09894280  -0.22435980  -0.17334806
  S12  -0.09894280  -0.22435980  -0.17334806
  S13  -0.09894280  -0.22435980  -0.17334806
  S14  -0.07211831  -0.16353337  -0.12635148
  S15  -0.07167856  -0.16253621  -0.12558104
  S16  -0.04925153  -0.11168132  -0.08628881
  S17  -0.04881178  -0.11068417  -0.08551838
  S18  -0.07211831  -0.16353337  -0.12635148
  S19  -0.07211831  -0.16353337  -0.12635148
  S20  -0.04925153  -0.11168132  -0.08628881
  S21  -0.04793229  -0.10868986  -0.08397751
  S22  -0.04881178  -0.11068417  -0.08551838
  S23  -0.04837204  -0.10968701  -0.08474794
  S24  -0.04881178  -0.11068417  -0.08551838
  S25  -0.04925153  -0.11168132  -0.08628881
