# generated using pymatgen
data_Ca(CrS2)4
_symmetry_space_group_name_H-M   'P 1'
_cell_length_a   6.88385403
_cell_length_b   6.88383855
_cell_length_c   7.85324267
_cell_angle_alpha   64.03273684
_cell_angle_beta   64.03263739
_cell_angle_gamma   60.03007311
_symmetry_Int_Tables_number   1
_chemical_formula_structural   Ca(CrS2)4
_chemical_formula_sum   'Ca1 Cr4 S8'
_cell_volume   278.12904004
_cell_formula_units_Z   1
loop_
 _symmetry_equiv_pos_site_id
 _symmetry_equiv_pos_as_xyz
  1  'x, y, z'
loop_
 _atom_site_type_symbol
 _atom_site_label
 _atom_site_symmetry_multiplicity
 _atom_site_fract_x
 _atom_site_fract_y
 _atom_site_fract_z
 _atom_site_occupancy
  Ca  Ca0  1  0.50000000  0.50000100  0.50000000  1
  Cr  Cr1  1  0.00000000  0.49999900  0.00000100  1
  Cr  Cr2  1  0.50000000  0.00000100  0.99999900  1
  Cr  Cr3  1  0.50000000  0.50000000  0.00000000  1
  Cr  Cr4  1  0.00000000  0.00000000  0.00000000  1
  S  S5  1  0.73633100  0.23393100  0.79577900  1
  S  S6  1  0.76606600  0.76606500  0.20419200  1
  S  S7  1  0.26366900  0.76606900  0.20422100  1
  S  S8  1  0.76606900  0.26366800  0.20422100  1
  S  S9  1  0.73450600  0.73450600  0.79636800  1
  S  S10  1  0.26549400  0.26549400  0.20363200  1
  S  S11  1  0.23393100  0.73633200  0.79577900  1
  S  S12  1  0.23393400  0.23393400  0.79580800  1
loop_
 _atom_site_moment_label
 _atom_site_moment_crystalaxis_x
 _atom_site_moment_crystalaxis_y
 _atom_site_moment_crystalaxis_z
  Ca0  -0.00004714  -0.00004716  -0.00695836
  Cr1  0.02054672  0.02055431  3.03284907
  Cr2  0.02054672  0.02055431  3.03284907
  Cr3  0.02053999  0.02054758  3.03185502
  Cr4  0.02051305  0.02052063  3.02787882
  S5  -0.00134015  -0.00134065  -0.19781611
  S6  -0.00134688  -0.00134738  -0.19881017
  S7  -0.00134015  -0.00134065  -0.19781611
  S8  -0.00134015  -0.00134065  -0.19781611
  S9  -0.00202033  -0.00202107  -0.29821525
  S10  -0.00202033  -0.00202107  -0.29821525
  S11  -0.00134015  -0.00134065  -0.19781611
  S12  -0.00134688  -0.00134738  -0.19881017
