# generated using pymatgen
data_Mg(NiS2)2
_symmetry_space_group_name_H-M   'P 1'
_cell_length_a   7.12806071
_cell_length_b   7.13465139
_cell_length_c   7.14215773
_cell_angle_alpha   90.03085192
_cell_angle_beta   119.97655166
_cell_angle_gamma   119.91947385
_symmetry_Int_Tables_number   1
_chemical_formula_structural   Mg(NiS2)2
_chemical_formula_sum   'Mg2 Ni4 S8'
_cell_volume   257.17172984
_cell_formula_units_Z   2
loop_
 _symmetry_equiv_pos_site_id
 _symmetry_equiv_pos_as_xyz
  1  'x, y, z'
loop_
 _atom_site_type_symbol
 _atom_site_label
 _atom_site_symmetry_multiplicity
 _atom_site_fract_x
 _atom_site_fract_y
 _atom_site_fract_z
 _atom_site_occupancy
  Mg  Mg0  1  0.24870100  0.87386900  0.12245400  1
  Mg  Mg1  1  0.75269200  0.12454100  0.87716700  1
  Ni  Ni2  1  0.99934800  0.50055000  0.49988400  1
  Ni  Ni3  1  0.49932100  0.49945400  0.50007300  1
  Ni  Ni4  1  0.00055900  0.00071700  0.50015700  1
  Ni  Ni5  1  0.50031700  0.49983300  0.00009500  1
  S  S6  1  0.52703500  0.73565300  0.26318400  1
  S  S7  1  0.02803400  0.26473800  0.73639200  1
  S  S8  1  0.02807200  0.26468100  0.29262200  1
  S  S9  1  0.47234900  0.70894800  0.73700800  1
  S  S10  1  0.97048600  0.73629200  0.70714700  1
  S  S11  1  0.52594700  0.29008000  0.26277000  1
  S  S12  1  0.47419600  0.26373400  0.73755100  1
  S  S13  1  0.97294800  0.73691400  0.26350200  1
loop_
 _atom_site_moment_label
 _atom_site_moment_crystalaxis_x
 _atom_site_moment_crystalaxis_y
 _atom_site_moment_crystalaxis_z
  Mg0  0.00000362  -0.00000313  0.00800180
  Mg1  0.00000362  -0.00000313  0.00800180
  Ni2  0.00062504  -0.00054141  1.38331167
  Ni3  0.00062414  -0.00054063  1.38131122
  Ni4  0.00062369  -0.00054024  1.38031100
  Ni5  0.00062052  -0.00053750  1.37330942
  S6  -0.00006282  0.00005442  -0.13903133
  S7  -0.00006237  0.00005402  -0.13803110
  S8  -0.00006146  0.00005324  -0.13603065
  S9  -0.00006146  0.00005324  -0.13603065
  S10  -0.00006146  0.00005324  -0.13603065
  S11  -0.00006192  0.00005363  -0.13703087
  S12  -0.00006282  0.00005442  -0.13903133
  S13  -0.00006282  0.00005442  -0.13903133
