# generated using pymatgen
data_Li(MnS2)2
_symmetry_space_group_name_H-M   'P 1'
_cell_length_a   7.26281355
_cell_length_b   7.26283349
_cell_length_c   7.26279100
_cell_angle_alpha   59.99893135
_cell_angle_beta   59.99886338
_cell_angle_gamma   59.99896323
_symmetry_Int_Tables_number   1
_chemical_formula_structural   Li(MnS2)2
_chemical_formula_sum   'Li2 Mn4 S8'
_cell_volume   270.88745343
_cell_formula_units_Z   2
loop_
 _symmetry_equiv_pos_site_id
 _symmetry_equiv_pos_as_xyz
  1  'x, y, z'
loop_
 _atom_site_type_symbol
 _atom_site_label
 _atom_site_symmetry_multiplicity
 _atom_site_fract_x
 _atom_site_fract_y
 _atom_site_fract_z
 _atom_site_occupancy
  Li  Li0  1  0.25000000  0.25000000  0.25000000  1
  Li  Li1  1  0.50000000  0.50000000  0.50000000  1
  Mn  Mn2  1  0.87500000  0.87500000  0.37500000  1
  Mn  Mn3  1  0.37500000  0.87500000  0.87500000  1
  Mn  Mn4  1  0.87500000  0.87500000  0.87500000  1
  Mn  Mn5  1  0.87500000  0.37500000  0.87500000  1
  S  S6  1  0.63448100  0.63448000  0.09656000  1
  S  S7  1  0.09656100  0.63448000  0.63448100  1
  S  S8  1  0.63447900  0.63447800  0.63447900  1
  S  S9  1  0.11552100  0.11552200  0.65343500  1
  S  S10  1  0.11552200  0.65343400  0.11552100  1
  S  S11  1  0.65343400  0.11552200  0.11552100  1
  S  S12  1  0.63448000  0.09656100  0.63448100  1
  S  S13  1  0.11552300  0.11552400  0.11552200  1
loop_
 _atom_site_moment_label
 _atom_site_moment_crystalaxis_x
 _atom_site_moment_crystalaxis_y
 _atom_site_moment_crystalaxis_z
  Mn2  -0.00003827  -0.00004000  4.16103913
  Mn3  -0.00003827  -0.00004000  4.16103913
  Mn4  -0.00003827  -0.00004000  4.16103913
  Mn5  -0.00003827  -0.00004000  4.16103913
  S6  0.00000266  0.00000278  -0.28900272
  S7  0.00000266  0.00000278  -0.28900272
  S8  0.00000266  0.00000278  -0.28900272
  S9  0.00000266  0.00000278  -0.28900272
  S10  0.00000266  0.00000278  -0.28900272
  S11  0.00000266  0.00000278  -0.28900272
  S12  0.00000266  0.00000278  -0.28900272
  S13  0.00000266  0.00000278  -0.28900272
