# generated using pymatgen
data_Li(CrS2)2
_symmetry_space_group_name_H-M   'P 1'
_cell_length_a   7.16800424
_cell_length_b   7.16971353
_cell_length_c   7.16735061
_cell_angle_alpha   89.87361994
_cell_angle_beta   60.40679424
_cell_angle_gamma   120.25015050
_symmetry_Int_Tables_number   1
_chemical_formula_structural   Li(CrS2)2
_chemical_formula_sum   'Li2 Cr4 S8'
_cell_volume   260.78187806
_cell_formula_units_Z   2
loop_
 _symmetry_equiv_pos_site_id
 _symmetry_equiv_pos_as_xyz
  1  'x, y, z'
loop_
 _atom_site_type_symbol
 _atom_site_label
 _atom_site_symmetry_multiplicity
 _atom_site_fract_x
 _atom_site_fract_y
 _atom_site_fract_z
 _atom_site_occupancy
  Li  Li0  1  0.50001200  0.50001400  0.49999700  1
  Li  Li1  1  0.99999100  0.99999500  0.49999700  1
  Cr  Cr2  1  0.24994000  0.62743600  0.12244800  1
  Cr  Cr3  1  0.75003500  0.37254200  0.87755300  1
  Cr  Cr4  1  0.00000400  0.00000000  0.99999900  1
  Cr  Cr5  1  0.50000000  0.00000000  0.50000300  1
  S  S6  1  0.01928700  0.77043600  0.74880300  1
  S  S7  1  0.48069000  0.23192800  0.74872900  1
  S  S8  1  0.50107100  0.23937000  0.25960300  1
  S  S9  1  0.98071900  0.22956500  0.25119800  1
  S  S10  1  0.00089300  0.76057100  0.23843700  1
  S  S11  1  0.51931200  0.76807300  0.25127200  1
  S  S12  1  0.99910600  0.23943600  0.76157000  1
  S  S13  1  0.49894100  0.76063500  0.74039200  1
loop_
 _atom_site_moment_label
 _atom_site_moment_crystalaxis_x
 _atom_site_moment_crystalaxis_y
 _atom_site_moment_crystalaxis_z
  Li0  0.00000369  0.00000210  0.00099817
  Li1  0.00000369  0.00000210  0.00099817
  Cr2  0.01127390  0.00643442  3.05340781
  Cr3  0.01127759  0.00643653  3.05440599
  Cr4  0.01169405  0.00667422  3.16719941
  Cr5  0.01169036  0.00667211  3.16620124
  S6  -0.00091031  -0.00051955  -0.24654846
  S7  -0.00091031  -0.00051955  -0.24654846
  S8  -0.00121990  -0.00069624  -0.33039490
  S9  -0.00091031  -0.00051955  -0.24654846
  S10  -0.00121990  -0.00069624  -0.33039490
  S11  -0.00091031  -0.00051955  -0.24654846
  S12  -0.00121621  -0.00069414  -0.32939672
  S13  -0.00121990  -0.00069624  -0.33039490
