# generated using pymatgen
data_Ca(NiS2)2
_symmetry_space_group_name_H-M   'P 1'
_cell_length_a   6.85746120
_cell_length_b   7.93330278
_cell_length_c   6.85773019
_cell_angle_alpha   64.37567242
_cell_angle_beta   89.97341398
_cell_angle_gamma   64.37584276
_symmetry_Int_Tables_number   1
_chemical_formula_structural   Ca(NiS2)2
_chemical_formula_sum   'Ca2 Ni4 S8'
_cell_volume   295.20634398
_cell_formula_units_Z   2
loop_
 _symmetry_equiv_pos_site_id
 _symmetry_equiv_pos_as_xyz
  1  'x, y, z'
loop_
 _atom_site_type_symbol
 _atom_site_label
 _atom_site_symmetry_multiplicity
 _atom_site_fract_x
 _atom_site_fract_y
 _atom_site_fract_z
 _atom_site_occupancy
  Ca  Ca0  1  0.50002400  0.00007300  0.49989300  1
  Ca  Ca1  1  0.24990600  0.50001800  0.75003800  1
  Ni  Ni2  1  0.87516300  0.24968800  0.62520000  1
  Ni  Ni3  1  0.87497200  0.24996600  0.12492400  1
  Ni  Ni4  1  0.37496900  0.75001000  0.12497400  1
  Ni  Ni5  1  0.87500800  0.75003600  0.12511100  1
  S  S6  1  0.10235300  0.79537100  0.31979800  1
  S  S7  1  0.68022800  0.20461000  0.89765700  1
  S  S8  1  0.11512800  0.20458600  0.89765300  1
  S  S9  1  0.64769000  0.70483400  0.93025100  1
  S  S10  1  0.64753200  0.70479800  0.36496400  1
  S  S11  1  0.06965200  0.29529300  0.35224900  1
  S  S12  1  0.10234400  0.79536600  0.88491300  1
  S  S13  1  0.63503100  0.29535300  0.35237600  1
loop_
 _atom_site_moment_label
 _atom_site_moment_crystalaxis_x
 _atom_site_moment_crystalaxis_y
 _atom_site_moment_crystalaxis_z
  Ni2  0.00025898  0.00007393  -1.25403206
  Ni3  0.00025898  0.00007393  -1.25403206
  Ni4  -0.00025898  -0.00007393  1.25403206
  Ni5  -0.00025898  -0.00007393  1.25403206
  S6  0.00002747  0.00000784  -0.13300340
  S7  -0.00002747  -0.00000784  0.13300340
  S8  -0.00002747  -0.00000784  0.13300340
  S9  0.00002767  0.00000790  -0.13400343
  S10  0.00002767  0.00000790  -0.13400343
  S11  -0.00002767  -0.00000790  0.13400343
  S12  0.00002767  0.00000790  -0.13400343
  S13  -0.00002767  -0.00000790  0.13400343
