# generated using pymatgen
data_Ca(FeS2)2
_symmetry_space_group_name_H-M   'P 1'
_cell_length_a   7.50533993
_cell_length_b   7.49222138
_cell_length_c   7.49121009
_cell_angle_alpha   59.91502838
_cell_angle_beta   59.94576568
_cell_angle_gamma   59.94695179
_symmetry_Int_Tables_number   1
_chemical_formula_structural   Ca(FeS2)2
_chemical_formula_sum   'Ca2 Fe4 S8'
_cell_volume   297.43093383
_cell_formula_units_Z   2
loop_
 _symmetry_equiv_pos_site_id
 _symmetry_equiv_pos_as_xyz
  1  'x, y, z'
loop_
 _atom_site_type_symbol
 _atom_site_label
 _atom_site_symmetry_multiplicity
 _atom_site_fract_x
 _atom_site_fract_y
 _atom_site_fract_z
 _atom_site_occupancy
  Ca  Ca0  1  0.00000100  0.99999900  0.00000100  1
  Ca  Ca1  1  0.00000000  0.50000000  0.50000000  1
  Fe  Fe2  1  0.50000100  0.00000000  0.49999900  1
  Fe  Fe3  1  0.00000000  0.99999900  0.50000000  1
  Fe  Fe4  1  0.38126500  0.36876000  0.86874600  1
  Fe  Fe5  1  0.61873700  0.63123900  0.13125200  1
  S  S6  1  0.74029100  0.77720400  0.74205800  1
  S  S7  1  0.74040900  0.24212800  0.27715600  1
  S  S8  1  0.25970700  0.22279900  0.25794000  1
  S  S9  1  0.25959100  0.75787300  0.72284400  1
  S  S10  1  0.24747200  0.76640700  0.26640600  1
  S  S11  1  0.28027800  0.23360600  0.73357000  1
  S  S12  1  0.71972200  0.76639400  0.26643200  1
  S  S13  1  0.75252700  0.23359200  0.73359500  1
loop_
 _atom_site_moment_label
 _atom_site_moment_crystalaxis_x
 _atom_site_moment_crystalaxis_y
 _atom_site_moment_crystalaxis_z
  Ca0  -0.00013656  -0.00004474  0.03009051
  Ca1  -0.00013656  -0.00004474  0.03009051
  Fe2  0.01783049  0.00584163  -3.92881786
  Fe3  0.01783049  0.00584163  -3.92881786
  Fe4  -0.01762110  -0.00577302  3.88267908
  Fe5  -0.01762110  -0.00577302  3.88267908
  S6  0.00029589  0.00009694  -0.06519611
  S7  0.00029589  0.00009694  -0.06519611
  S8  0.00029589  0.00009694  -0.06519611
  S9  0.00029589  0.00009694  -0.06519611
  S10  -0.00019119  -0.00006264  0.04212672
  S11  -0.00019119  -0.00006264  0.04212672
  S12  -0.00019119  -0.00006264  0.04212672
  S13  -0.00018664  -0.00006115  0.04112370
