# generated using pymatgen
data_Mg(MnS2)2
_symmetry_space_group_name_H-M   'P 1'
_cell_length_a   7.24548446
_cell_length_b   7.33706867
_cell_length_c   7.34710853
_cell_angle_alpha   61.13628833
_cell_angle_beta   60.40886792
_cell_angle_gamma   60.33442475
_symmetry_Int_Tables_number   1
_chemical_formula_structural   Mg(MnS2)2
_chemical_formula_sum   'Mg2 Mn4 S8'
_cell_volume   280.05379124
_cell_formula_units_Z   2
loop_
 _symmetry_equiv_pos_site_id
 _symmetry_equiv_pos_as_xyz
  1  'x, y, z'
loop_
 _atom_site_type_symbol
 _atom_site_label
 _atom_site_symmetry_multiplicity
 _atom_site_fract_x
 _atom_site_fract_y
 _atom_site_fract_z
 _atom_site_occupancy
  Mg  Mg0  1  0.00000000  0.00000000  0.00000000  1
  Mg  Mg1  1  0.00000000  0.50000000  0.50000100  1
  Mn  Mn2  1  0.00000100  0.99999900  0.50000000  1
  Mn  Mn3  1  0.50000000  0.00000000  0.00000000  1
  Mn  Mn4  1  0.50000100  0.00000100  0.49999900  1
  Mn  Mn5  1  0.49999900  0.50000000  0.50000000  1
  S  S6  1  0.25016200  0.77651500  0.72334900  1
  S  S7  1  0.23826200  0.76109500  0.26120600  1
  S  S8  1  0.24946900  0.22381100  0.27700300  1
  S  S9  1  0.26032600  0.23885300  0.73891100  1
  S  S10  1  0.75053400  0.77618600  0.72299400  1
  S  S11  1  0.76173900  0.23890500  0.73879500  1
  S  S12  1  0.73967100  0.76115100  0.26108900  1
  S  S13  1  0.74983700  0.22348500  0.27665300  1
loop_
 _atom_site_moment_label
 _atom_site_moment_crystalaxis_x
 _atom_site_moment_crystalaxis_y
 _atom_site_moment_crystalaxis_z
  Mg0  -0.00002365  -0.00024065  0.01812652
  Mg1  -0.00002365  -0.00024065  0.01812652
  Mn2  -0.00529400  -0.05386491  4.05731934
  Mn3  -0.00600881  -0.06113781  4.60514305
  Mn4  -0.00529400  -0.05386491  4.05731934
  Mn5  -0.00600355  -0.06108433  4.60111494
  S6  0.00032061  0.00326211  -0.24571505
  S7  0.00014060  0.00143052  -0.10775209
  S8  0.00031930  0.00324874  -0.24470802
  S9  0.00014060  0.00143052  -0.10775209
  S10  0.00031930  0.00324874  -0.24470802
  S11  0.00014060  0.00143052  -0.10775209
  S12  0.00014060  0.00143052  -0.10775209
  S13  0.00032061  0.00326211  -0.24571505
