# generated using pymatgen
data_Mg(CoS2)2
_symmetry_space_group_name_H-M   'P 1'
_cell_length_a   6.70801813
_cell_length_b   7.01147359
_cell_length_c   7.01104587
_cell_angle_alpha   61.27961273
_cell_angle_beta   61.41960439
_cell_angle_gamma   61.42153772
_symmetry_Int_Tables_number   1
_chemical_formula_structural   Mg(CoS2)2
_chemical_formula_sum   'Mg2 Co4 S8'
_cell_volume   240.36411474
_cell_formula_units_Z   2
loop_
 _symmetry_equiv_pos_site_id
 _symmetry_equiv_pos_as_xyz
  1  'x, y, z'
loop_
 _atom_site_type_symbol
 _atom_site_label
 _atom_site_symmetry_multiplicity
 _atom_site_fract_x
 _atom_site_fract_y
 _atom_site_fract_z
 _atom_site_occupancy
  Mg  Mg0  1  0.50008200  0.99996800  0.49997000  1
  Mg  Mg1  1  0.99998000  0.99996800  0.49997000  1
  Co  Co2  1  0.36597300  0.38396500  0.88409100  1
  Co  Co3  1  0.63402600  0.61603500  0.11591000  1
  Co  Co4  1  0.99999900  0.00002100  0.99998100  1
  Co  Co5  1  0.99999900  0.49998100  0.50002100  1
  S  S6  1  0.22326300  0.74985900  0.24979100  1
  S  S7  1  0.77708500  0.74985800  0.24979200  1
  S  S8  1  0.77277500  0.72011300  0.73433700  1
  S  S9  1  0.77665000  0.25015500  0.75022100  1
  S  S10  1  0.22722700  0.76572500  0.77982000  1
  S  S11  1  0.22297700  0.25015500  0.75022000  1
  S  S12  1  0.77275400  0.23439900  0.22009300  1
  S  S13  1  0.22720900  0.27979700  0.26578400  1
loop_
 _atom_site_moment_label
 _atom_site_moment_crystalaxis_x
 _atom_site_moment_crystalaxis_y
 _atom_site_moment_crystalaxis_z
  Mg0  0.00023978  -0.00000888  0.00888715
  Mg1  0.00023978  -0.00000888  0.00888715
  Co2  0.05752025  -0.00212909  2.13192825
  Co3  0.05749361  -0.00212811  2.13094079
  Co4  0.00431602  -0.00015976  0.15996868
  Co5  0.00428937  -0.00015877  0.15898122
  S6  0.00015985  -0.00000592  0.00592477
  S7  0.00015985  -0.00000592  0.00592477
  S8  -0.00013321  0.00000493  -0.00493730
  S9  0.00015985  -0.00000592  0.00592477
  S10  -0.00013321  0.00000493  -0.00493730
  S11  0.00015985  -0.00000592  0.00592477
  S12  -0.00013321  0.00000493  -0.00493730
  S13  -0.00013321  0.00000493  -0.00493730
