# generated using pymatgen
data_Mg(CrS2)4
_symmetry_space_group_name_H-M   'P 1'
_cell_length_a   7.05140507
_cell_length_b   7.05138990
_cell_length_c   7.05224769
_cell_angle_alpha   60.00544758
_cell_angle_beta   60.00553275
_cell_angle_gamma   60.00134586
_symmetry_Int_Tables_number   1
_chemical_formula_structural   Mg(CrS2)4
_chemical_formula_sum   'Mg1 Cr4 S8'
_cell_volume   247.97243352
_cell_formula_units_Z   1
loop_
 _symmetry_equiv_pos_site_id
 _symmetry_equiv_pos_as_xyz
  1  'x, y, z'
loop_
 _atom_site_type_symbol
 _atom_site_label
 _atom_site_symmetry_multiplicity
 _atom_site_fract_x
 _atom_site_fract_y
 _atom_site_fract_z
 _atom_site_occupancy
  Mg  Mg0  1  0.00000000  0.00000000  0.00000000  1
  Cr  Cr1  1  0.50000000  0.50000000  0.50000000  1
  Cr  Cr2  1  0.50000000  0.50000000  0.00000000  1
  Cr  Cr3  1  0.50000000  0.00000000  0.00000000  1
  Cr  Cr4  1  0.00000000  0.50000000  0.00000000  1
  S  S5  1  0.25660400  0.73023300  0.75655900  1
  S  S6  1  0.25660400  0.25660500  0.75655900  1
  S  S7  1  0.73023300  0.25660300  0.75655900  1
  S  S8  1  0.25763700  0.25763800  0.22708500  1
  S  S9  1  0.74236300  0.74236300  0.77291400  1
  S  S10  1  0.74339600  0.74339500  0.24344200  1
  S  S11  1  0.26976800  0.74339600  0.24344100  1
  S  S12  1  0.74339600  0.26976800  0.24344100  1
loop_
 _atom_site_moment_label
 _atom_site_moment_crystalaxis_x
 _atom_site_moment_crystalaxis_y
 _atom_site_moment_crystalaxis_z
  Mg0  0.00000447  0.00000447  -0.00300447
  Cr1  -0.00460233  -0.00460280  3.09059494
  Cr2  -0.00459637  -0.00459683  3.08658898
  Cr3  -0.00459488  -0.00459534  3.08558749
  Cr4  -0.00459488  -0.00459534  3.08558749
  S5  0.00033257  0.00033261  -0.22333204
  S6  0.00033257  0.00033261  -0.22333204
  S7  0.00033257  0.00033261  -0.22333204
  S8  0.00056075  0.00056081  -0.37655985
  S9  0.00056075  0.00056081  -0.37655985
  S10  0.00033257  0.00033261  -0.22333204
  S11  0.00033257  0.00033261  -0.22333204
  S12  0.00033257  0.00033261  -0.22333204
