# generated using pymatgen
data_CaMn2S5
_symmetry_space_group_name_H-M   'P 1'
_cell_length_a   4.19082415
_cell_length_b   6.95770421
_cell_length_c   13.85111712
_cell_angle_alpha   89.99670048
_cell_angle_beta   90.01254198
_cell_angle_gamma   90.02876520
_symmetry_Int_Tables_number   1
_chemical_formula_structural   CaMn2S5
_chemical_formula_sum   'Ca2 Mn4 S10'
_cell_volume   403.87794341
_cell_formula_units_Z   2
loop_
 _symmetry_equiv_pos_site_id
 _symmetry_equiv_pos_as_xyz
  1  'x, y, z'
loop_
 _atom_site_type_symbol
 _atom_site_label
 _atom_site_symmetry_multiplicity
 _atom_site_fract_x
 _atom_site_fract_y
 _atom_site_fract_z
 _atom_site_occupancy
  Ca  Ca0  1  0.49979000  0.58983600  0.00007000  1
  Ca  Ca1  1  0.00025300  0.41026500  0.50010000  1
  Mn  Mn2  1  0.50006100  0.97976500  0.34934200  1
  Mn  Mn3  1  0.49964800  0.98007900  0.65055800  1
  Mn  Mn4  1  0.00010300  0.01983700  0.15065000  1
  Mn  Mn5  1  0.00013900  0.02025500  0.84934900  1
  S  S6  1  0.49997200  0.14337700  0.49990500  1
  S  S7  1  0.00005300  0.85674700  0.99995200  1
  S  S8  1  0.50001300  0.84575800  0.19064100  1
  S  S9  1  0.00021900  0.15373700  0.30936100  1
  S  S10  1  0.49974100  0.84625300  0.80929000  1
  S  S11  1  0.99995500  0.15408100  0.69059400  1
  S  S12  1  0.99952100  0.34714200  0.92394000  1
  S  S13  1  0.50049000  0.65305100  0.57617300  1
  S  S14  1  0.50053300  0.65290400  0.42386000  1
  S  S15  1  0.99950900  0.34691300  0.07621700  1
loop_
 _atom_site_moment_label
 _atom_site_moment_crystalaxis_x
 _atom_site_moment_crystalaxis_y
 _atom_site_moment_crystalaxis_z
  Ca0  0.00000144  -0.00000033  0.01100000
  Ca1  -0.00000144  0.00000033  -0.01100000
  Mn2  -0.00055464  0.00012588  -4.24700009
  Mn3  -0.00055477  0.00012591  -4.24800009
  Mn4  0.00055477  -0.00012591  4.24800009
  Mn5  0.00055477  -0.00012591  4.24800009
  S6  0.00001606  -0.00000365  0.12300000
  S7  -0.00001606  0.00000365  -0.12300000
  S8  -0.00000052  0.00000012  -0.00400000
  S9  0.00000052  -0.00000012  0.00400000
  S10  -0.00000052  0.00000012  -0.00400000
  S11  0.00000052  -0.00000012  0.00400000
  S12  -0.00000679  0.00000154  -0.05200000
  S13  0.00000679  -0.00000154  0.05200000
  S14  0.00000679  -0.00000154  0.05200000
  S15  -0.00000679  0.00000154  -0.05200000
