# generated using pymatgen
data_CaFe2S5
_symmetry_space_group_name_H-M   'P 1'
_cell_length_a   4.06925321
_cell_length_b   6.81119399
_cell_length_c   13.95233010
_cell_angle_alpha   90.00428701
_cell_angle_beta   90.00046969
_cell_angle_gamma   90.07489537
_symmetry_Int_Tables_number   1
_chemical_formula_structural   CaFe2S5
_chemical_formula_sum   'Ca2 Fe4 S10'
_cell_volume   386.70904897
_cell_formula_units_Z   2
loop_
 _symmetry_equiv_pos_site_id
 _symmetry_equiv_pos_as_xyz
  1  'x, y, z'
loop_
 _atom_site_type_symbol
 _atom_site_label
 _atom_site_symmetry_multiplicity
 _atom_site_fract_x
 _atom_site_fract_y
 _atom_site_fract_z
 _atom_site_occupancy
  Ca  Ca0  1  0.49972300  0.08792100  0.00008500  1
  Ca  Ca1  1  0.00028900  0.91208200  0.49991400  1
  Fe  Fe2  1  0.50027100  0.49533800  0.65169900  1
  Fe  Fe3  1  0.99996800  0.50465500  0.84830000  1
  Fe  Fe4  1  0.99974400  0.50457900  0.15169600  1
  Fe  Fe5  1  0.49999900  0.49542400  0.34830400  1
  S  S6  1  0.49958800  0.63595500  0.50000300  1
  S  S7  1  0.00042400  0.36404700  0.99999600  1
  S  S8  1  0.49946000  0.32684700  0.19564300  1
  S  S9  1  0.00028800  0.67315700  0.30435700  1
  S  S10  1  0.49968400  0.32692200  0.80437400  1
  S  S11  1  0.00055600  0.67307100  0.69562700  1
  S  S12  1  0.99908100  0.82833400  0.92464900  1
  S  S13  1  0.50098200  0.17166700  0.57535200  1
  S  S14  1  0.50091800  0.17172500  0.42455000  1
  S  S15  1  0.99902500  0.82827700  0.07545100  1
loop_
 _atom_site_moment_label
 _atom_site_moment_crystalaxis_x
 _atom_site_moment_crystalaxis_y
 _atom_site_moment_crystalaxis_z
  Fe2  -0.00026842  -0.00037239  -3.93100000
  Fe3  -0.00026842  -0.00037239  -3.93100000
  Fe4  0.00026842  0.00037239  3.93100000
  Fe5  0.00026842  0.00037239  3.93100000
  S8  0.00001659  0.00002302  0.24300000
  S9  0.00001659  0.00002302  0.24300000
  S10  -0.00001659  -0.00002302  -0.24300000
  S11  -0.00001659  -0.00002302  -0.24300000
  S12  -0.00000498  -0.00000692  -0.07300000
  S13  -0.00000498  -0.00000692  -0.07300000
  S14  0.00000498  0.00000692  0.07300000
  S15  0.00000498  0.00000692  0.07300000
