# generated using pymatgen
data_Mg(MnS2)2
_symmetry_space_group_name_H-M   'P 1'
_cell_length_a   7.44197080
_cell_length_b   7.44198512
_cell_length_c   7.44199300
_cell_angle_alpha   59.99998989
_cell_angle_beta   60.00010365
_cell_angle_gamma   60.00022459
_symmetry_Int_Tables_number   1
_chemical_formula_structural   Mg(MnS2)2
_chemical_formula_sum   'Mg2 Mn4 S8'
_cell_volume   291.44194893
_cell_formula_units_Z   2
loop_
 _symmetry_equiv_pos_site_id
 _symmetry_equiv_pos_as_xyz
  1  'x, y, z'
loop_
 _atom_site_type_symbol
 _atom_site_label
 _atom_site_symmetry_multiplicity
 _atom_site_fract_x
 _atom_site_fract_y
 _atom_site_fract_z
 _atom_site_occupancy
  Mg  Mg0  1  0.49999900  0.50000000  0.50000000  1
  Mg  Mg1  1  0.25000000  0.25000100  0.25000000  1
  Mn  Mn2  1  0.87499900  0.87499900  0.87499900  1
  Mn  Mn3  1  0.87499900  0.87499800  0.37500300  1
  Mn  Mn4  1  0.87499900  0.37500300  0.87499900  1
  Mn  Mn5  1  0.37500300  0.87499900  0.87499900  1
  S  S6  1  0.63503300  0.63503300  0.63503400  1
  S  S7  1  0.11495900  0.11496100  0.65511900  1
  S  S8  1  0.65512000  0.11495900  0.11496000  1
  S  S9  1  0.11496000  0.65511900  0.11496200  1
  S  S10  1  0.09490000  0.63503500  0.63503300  1
  S  S11  1  0.63503500  0.09489900  0.63503200  1
  S  S12  1  0.11496000  0.11496100  0.11496000  1
  S  S13  1  0.63503400  0.63503300  0.09490000  1
loop_
 _atom_site_moment_label
 _atom_site_moment_crystalaxis_x
 _atom_site_moment_crystalaxis_y
 _atom_site_moment_crystalaxis_z
  Mg0  0.00000003  0.00000000  0.01499999
  Mg1  0.00000003  0.00000000  0.01499999
  Mn2  0.00000950  -0.00000215  4.35299633
  Mn3  0.00000950  -0.00000215  4.35299633
  Mn4  0.00000950  -0.00000215  4.35299633
  Mn5  0.00000950  -0.00000215  4.35299633
  S6  -0.00000043  0.00000010  -0.19899983
  S7  -0.00000043  0.00000010  -0.19799983
  S8  -0.00000044  0.00000010  -0.19999983
  S9  -0.00000043  0.00000010  -0.19899983
  S10  -0.00000044  0.00000010  -0.19999983
  S11  -0.00000043  0.00000010  -0.19899983
  S12  -0.00000043  0.00000010  -0.19899983
  S13  -0.00000043  0.00000010  -0.19799983
