# generated using pymatgen
data_Mg(MnS2)4
_symmetry_space_group_name_H-M   'P 1'
_cell_length_a   7.18138567
_cell_length_b   7.18141191
_cell_length_c   7.38690597
_cell_angle_alpha   60.86054415
_cell_angle_beta   60.86038460
_cell_angle_gamma   59.99661489
_symmetry_Int_Tables_number   1
_chemical_formula_structural   Mg(MnS2)4
_chemical_formula_sum   'Mg1 Mn4 S8'
_cell_volume   272.82357235
_cell_formula_units_Z   1
loop_
 _symmetry_equiv_pos_site_id
 _symmetry_equiv_pos_as_xyz
  1  'x, y, z'
loop_
 _atom_site_type_symbol
 _atom_site_label
 _atom_site_symmetry_multiplicity
 _atom_site_fract_x
 _atom_site_fract_y
 _atom_site_fract_z
 _atom_site_occupancy
  Mg  Mg0  1  0.50000000  0.50000000  0.50000000  1
  Mn  Mn1  1  0.50000000  0.00000000  0.00000000  1
  Mn  Mn2  1  0.50000000  0.50000000  0.00000000  1
  Mn  Mn3  1  0.00000000  0.50000000  0.00000000  1
  Mn  Mn4  1  0.00000000  0.00000000  0.00000000  1
  S  S5  1  0.24912800  0.72687800  0.77469800  1
  S  S6  1  0.27312200  0.75087100  0.22530100  1
  S  S7  1  0.75087200  0.27312300  0.22530200  1
  S  S8  1  0.75081200  0.75081100  0.22512200  1
  S  S9  1  0.73742300  0.73742200  0.78791700  1
  S  S10  1  0.26257700  0.26257800  0.21208400  1
  S  S11  1  0.24918800  0.24918800  0.77487900  1
  S  S12  1  0.72687800  0.24912900  0.77469800  1
loop_
 _atom_site_moment_label
 _atom_site_moment_crystalaxis_x
 _atom_site_moment_crystalaxis_y
 _atom_site_moment_crystalaxis_z
  Mg0  -0.00048219  -0.00048217  0.02245874
  Mn1  -0.08777985  -0.08777690  4.08851124
  Mn2  -0.08784560  -0.08784265  4.09157380
  Mn3  -0.08775793  -0.08775498  4.08749039
  Mn4  -0.09930849  -0.09930515  4.62547926
  S5  0.00532597  0.00532579  -0.24806697
  S6  0.00532597  0.00532579  -0.24806697
  S7  0.00532597  0.00532579  -0.24806697
  S8  0.00534789  0.00534771  -0.24908783
  S9  0.00824100  0.00824073  -0.38384026
  S10  0.00824100  0.00824073  -0.38384026
  S11  0.00534789  0.00534771  -0.24908783
  S12  0.00532597  0.00532579  -0.24806697
