# generated using pymatgen
data_Ca(MnS2)4
_symmetry_space_group_name_H-M   'P 1'
_cell_length_a   7.21500459
_cell_length_b   7.20940987
_cell_length_c   7.87042997
_cell_angle_alpha   62.98312261
_cell_angle_beta   62.91708206
_cell_angle_gamma   59.84559166
_symmetry_Int_Tables_number   1
_chemical_formula_structural   Ca(MnS2)4
_chemical_formula_sum   'Ca1 Mn4 S8'
_cell_volume   301.34216110
_cell_formula_units_Z   1
loop_
 _symmetry_equiv_pos_site_id
 _symmetry_equiv_pos_as_xyz
  1  'x, y, z'
loop_
 _atom_site_type_symbol
 _atom_site_label
 _atom_site_symmetry_multiplicity
 _atom_site_fract_x
 _atom_site_fract_y
 _atom_site_fract_z
 _atom_site_occupancy
  Ca  Ca0  1  0.50000100  0.49999900  0.50000000  1
  Mn  Mn1  1  0.50000000  0.49999900  0.00000000  1
  Mn  Mn2  1  0.50000000  0.00000000  0.00000000  1
  Mn  Mn3  1  0.99999900  0.50000000  0.00000100  1
  Mn  Mn4  1  0.00000100  0.00000000  0.99999900  1
  S  S5  1  0.75900700  0.75980900  0.20358400  1
  S  S6  1  0.72194400  0.23785600  0.79713200  1
  S  S7  1  0.24099300  0.24019400  0.79641600  1
  S  S8  1  0.23865000  0.72113100  0.79875600  1
  S  S9  1  0.27019500  0.27020500  0.19296400  1
  S  S10  1  0.72980500  0.72979500  0.80703700  1
  S  S11  1  0.76134900  0.27886800  0.20124500  1
  S  S12  1  0.27805700  0.76214300  0.20286700  1
loop_
 _atom_site_moment_label
 _atom_site_moment_crystalaxis_x
 _atom_site_moment_crystalaxis_y
 _atom_site_moment_crystalaxis_z
  Ca0  -0.00053357  -0.00050953  0.02546253
  Mn1  -0.08577688  -0.08191204  4.09335603
  Mn2  -0.08552077  -0.08166746  4.08113402
  Mn3  -0.08564882  -0.08178975  4.08724503
  Mn4  -0.09623487  -0.09189882  4.59242158
  S5  0.00512228  0.00489149  -0.24444027
  S6  0.00512228  0.00489149  -0.24444027
  S7  0.00512228  0.00489149  -0.24444027
  S8  0.00510094  0.00487111  -0.24342177
  S9  0.00796088  0.00760219  -0.37990092
  S10  0.00796088  0.00760219  -0.37990092
  S11  0.00510094  0.00487111  -0.24342177
  S12  0.00512228  0.00489149  -0.24444027
