# generated using pymatgen
data_Mg(FeS2)4
_symmetry_space_group_name_H-M   'P 1'
_cell_length_a   7.10122906
_cell_length_b   7.10129387
_cell_length_c   7.07822353
_cell_angle_alpha   119.65999372
_cell_angle_beta   89.31303601
_cell_angle_gamma   60.34169058
_symmetry_Int_Tables_number   1
_chemical_formula_structural   Mg(FeS2)4
_chemical_formula_sum   'Mg1 Fe4 S8'
_cell_volume   253.46584816
_cell_formula_units_Z   1
loop_
 _symmetry_equiv_pos_site_id
 _symmetry_equiv_pos_as_xyz
  1  'x, y, z'
loop_
 _atom_site_type_symbol
 _atom_site_label
 _atom_site_symmetry_multiplicity
 _atom_site_fract_x
 _atom_site_fract_y
 _atom_site_fract_z
 _atom_site_occupancy
  Mg  Mg0  1  0.00000000  0.00000000  0.00000000  1
  Fe  Fe1  1  0.50000000  0.00000000  0.50000000  1
  Fe  Fe2  1  0.50000000  0.50000000  0.00000000  1
  Fe  Fe3  1  0.00000000  0.50000000  0.00000000  1
  Fe  Fe4  1  0.50000000  0.00000000  0.00000000  1
  S  S5  1  0.73986900  0.51418100  0.77431200  1
  S  S6  1  0.26013000  0.48581900  0.22568800  1
  S  S7  1  0.74621800  0.50965700  0.24222800  1
  S  S8  1  0.26742500  0.98844800  0.24222800  1
  S  S9  1  0.74447300  0.98865300  0.24417700  1
  S  S10  1  0.73257500  0.01155200  0.75777200  1
  S  S11  1  0.25552700  0.01134700  0.75582300  1
  S  S12  1  0.25378200  0.49034300  0.75777200  1
loop_
 _atom_site_moment_label
 _atom_site_moment_crystalaxis_x
 _atom_site_moment_crystalaxis_y
 _atom_site_moment_crystalaxis_z
  Mg0  0.00009001  -0.02192354  -0.02194167
  Fe1  0.01620197  -3.94623797  -3.94950017
  Fe2  0.01544506  -3.76188089  -3.76499069
  Fe3  -0.01563326  3.80772103  3.81086873
  Fe4  -0.01563736  3.80871756  3.81186607
  S5  -0.00028640  0.06975673  0.06981440
  S6  -0.00028640  0.06975673  0.06981440
  S7  0.00040914  -0.09965247  -0.09973485
  S8  0.00040505  -0.09865595  -0.09873750
  S9  -0.00002046  0.00498262  0.00498674
  S10  0.00040505  -0.09865595  -0.09873750
  S11  -0.00002046  0.00498262  0.00498674
  S12  0.00040914  -0.09965247  -0.09973485
