# generated using pymatgen
data_Ca(CrS2)2
_symmetry_space_group_name_H-M   'P 1'
_cell_length_a   7.32584246
_cell_length_b   7.33810467
_cell_length_c   7.33806992
_cell_angle_alpha   61.39051131
_cell_angle_beta   60.05517411
_cell_angle_gamma   60.05541194
_symmetry_Int_Tables_number   1
_chemical_formula_structural   Ca(CrS2)2
_chemical_formula_sum   'Ca2 Cr4 S8'
_cell_volume   281.99118823
_cell_formula_units_Z   2
loop_
 _symmetry_equiv_pos_site_id
 _symmetry_equiv_pos_as_xyz
  1  'x, y, z'
loop_
 _atom_site_type_symbol
 _atom_site_label
 _atom_site_symmetry_multiplicity
 _atom_site_fract_x
 _atom_site_fract_y
 _atom_site_fract_z
 _atom_site_occupancy
  Ca  Ca0  1  0.99999900  0.00000000  0.00000000  1
  Ca  Ca1  1  0.00000000  0.50000000  0.50000000  1
  Cr  Cr2  1  0.00000000  0.99999800  0.50000200  1
  Cr  Cr3  1  0.50000000  0.00000200  0.99999700  1
  Cr  Cr4  1  0.49999900  0.00000000  0.50000000  1
  Cr  Cr5  1  0.50000100  0.50000000  0.50000000  1
  S  S6  1  0.73654500  0.23540600  0.29150300  1
  S  S7  1  0.73152500  0.24048100  0.74048100  1
  S  S8  1  0.73654600  0.79150100  0.73540700  1
  S  S9  1  0.71248800  0.75951900  0.25951900  1
  S  S10  1  0.26345400  0.20849700  0.26459400  1
  S  S11  1  0.26847500  0.75952000  0.25951800  1
  S  S12  1  0.28751200  0.24048100  0.74048200  1
  S  S13  1  0.26345500  0.76459400  0.70849700  1
loop_
 _atom_site_moment_label
 _atom_site_moment_crystalaxis_x
 _atom_site_moment_crystalaxis_y
 _atom_site_moment_crystalaxis_z
  Ca0  -0.00001021  0.00001693  -0.01400300
  Ca1  -0.00001021  0.00001693  -0.01400300
  Cr2  0.00231229  -0.00383301  3.17067948
  Cr3  0.00230426  -0.00381971  3.15967712
  Cr4  0.00231229  -0.00383301  3.17067948
  Cr5  0.00230426  -0.00381971  3.15967712
  S6  -0.00009556  0.00015840  -0.13102808
  S7  -0.00008753  0.00014510  -0.12002572
  S8  -0.00009556  0.00015840  -0.13102808
  S9  -0.00008753  0.00014510  -0.12002572
  S10  -0.00009556  0.00015840  -0.13102808
  S11  -0.00008753  0.00014510  -0.12002572
  S12  -0.00008753  0.00014510  -0.12002572
  S13  -0.00009556  0.00015840  -0.13102808
