# generated using pymatgen
data_Ca(FeS2)2
_symmetry_space_group_name_H-M   'P 1'
_cell_length_a   7.48162800
_cell_length_b   7.68079236
_cell_length_c   7.48142200
_cell_angle_alpha   60.85553095
_cell_angle_beta   90.00186862
_cell_angle_gamma   60.85438960
_symmetry_Int_Tables_number   1
_chemical_formula_structural   Ca(FeS2)2
_chemical_formula_sum   'Ca2 Fe4 S8'
_cell_volume   311.68464400
_cell_formula_units_Z   2
loop_
 _symmetry_equiv_pos_site_id
 _symmetry_equiv_pos_as_xyz
  1  'x, y, z'
loop_
 _atom_site_type_symbol
 _atom_site_label
 _atom_site_symmetry_multiplicity
 _atom_site_fract_x
 _atom_site_fract_y
 _atom_site_fract_z
 _atom_site_occupancy
  Ca  Ca0  1  0.50000100  0.00000300  0.49999700  1
  Ca  Ca1  1  0.25000000  0.49999700  0.75000300  1
  Fe  Fe2  1  0.87500100  0.24999700  0.62500200  1
  Fe  Fe3  1  0.87500100  0.24999900  0.12499900  1
  Fe  Fe4  1  0.37499800  0.75000200  0.12499800  1
  Fe  Fe5  1  0.87500100  0.75000000  0.12500000  1
  S  S6  1  0.10187800  0.79623600  0.32271400  1
  S  S7  1  0.67728300  0.20376400  0.89812100  1
  S  S8  1  0.11895600  0.20375700  0.89813200  1
  S  S9  1  0.64812300  0.70376300  0.92728800  1
  S  S10  1  0.64813500  0.70375500  0.36895600  1
  S  S11  1  0.07271500  0.29623600  0.35188000  1
  S  S12  1  0.10186500  0.79624400  0.88104400  1
  S  S13  1  0.63104400  0.29624400  0.35186600  1
loop_
 _atom_site_moment_label
 _atom_site_moment_crystalaxis_x
 _atom_site_moment_crystalaxis_y
 _atom_site_moment_crystalaxis_z
  Fe2  -0.00007928  0.00002938  -3.98401431
  Fe3  -0.00007928  0.00002938  -3.98401431
  Fe4  0.00007928  -0.00002938  3.98401431
  Fe5  0.00007928  -0.00002938  3.98401431
  S6  0.00000159  -0.00000059  0.08000029
  S7  -0.00000159  0.00000059  -0.08000029
  S8  -0.00000159  0.00000059  -0.08000029
  S9  0.00000159  -0.00000059  0.08000029
  S10  0.00000159  -0.00000059  0.08000029
  S11  -0.00000159  0.00000059  -0.08000029
  S12  0.00000159  -0.00000059  0.08000029
  S13  -0.00000159  0.00000059  -0.08000029
