# generated using pymatgen
data_Ca(FeS2)2
_symmetry_space_group_name_H-M   'P 1'
_cell_length_a   7.59088100
_cell_length_b   7.61735068
_cell_length_c   7.59084354
_cell_angle_alpha   119.88360615
_cell_angle_beta   90.00252816
_cell_angle_gamma   119.88387390
_symmetry_Int_Tables_number   1
_chemical_formula_structural   Ca(FeS2)2
_chemical_formula_sum   'Ca2 Fe4 S8'
_cell_volume   311.44470463
_cell_formula_units_Z   2
loop_
 _symmetry_equiv_pos_site_id
 _symmetry_equiv_pos_as_xyz
  1  'x, y, z'
loop_
 _atom_site_type_symbol
 _atom_site_label
 _atom_site_symmetry_multiplicity
 _atom_site_fract_x
 _atom_site_fract_y
 _atom_site_fract_z
 _atom_site_occupancy
  Ca  Ca0  1  0.00000100  0.00000600  0.00000300  1
  Ca  Ca1  1  0.24999700  0.49999300  0.74999700  1
  Fe  Fe2  1  0.62498800  0.24997600  0.87497200  1
  Fe  Fe3  1  0.62498300  0.24996500  0.37500000  1
  Fe  Fe4  1  0.12503800  0.75003600  0.37502000  1
  Fe  Fe5  1  0.62499700  0.75002800  0.37500500  1
  S  S6  1  0.42732100  0.28509000  0.14254400  1
  S  S7  1  0.39223100  0.21491300  0.60745600  1
  S  S8  1  0.39254300  0.78508700  0.60777000  1
  S  S9  1  0.39254300  0.78508600  0.17731800  1
  S  S10  1  0.85745500  0.71491000  0.14223300  1
  S  S11  1  0.85745600  0.71491000  0.57267800  1
  S  S12  1  0.82268100  0.21491200  0.60745800  1
  S  S13  1  0.85776500  0.28508900  0.14254500  1
loop_
 _atom_site_moment_label
 _atom_site_moment_crystalaxis_x
 _atom_site_moment_crystalaxis_y
 _atom_site_moment_crystalaxis_z
  Fe2  -3.98600631  -0.00001266  -0.00009449
  Fe3  -3.98600631  -0.00001266  -0.00009449
  Fe4  3.98600631  0.00001266  0.00009449
  Fe5  3.98600631  0.00001266  0.00009449
  S6  -0.07900013  -0.00000025  -0.00000187
  S7  -0.07900013  -0.00000025  -0.00000187
  S8  0.07900013  0.00000025  0.00000187
  S9  0.07900013  0.00000025  0.00000187
  S10  0.07900013  0.00000025  0.00000187
  S11  0.07900013  0.00000025  0.00000187
  S12  -0.07900013  -0.00000025  -0.00000187
  S13  -0.07900013  -0.00000025  -0.00000187
