# generated using pymatgen
data_Mg(NiS2)4
_symmetry_space_group_name_H-M   'P 1'
_cell_length_a   6.92558781
_cell_length_b   6.93722352
_cell_length_c   12.10920550
_cell_angle_alpha   89.98133979
_cell_angle_beta   106.65680035
_cell_angle_gamma   120.06627085
_symmetry_Int_Tables_number   1
_chemical_formula_structural   Mg(NiS2)4
_chemical_formula_sum   'Mg2 Ni8 S16'
_cell_volume   475.11415589
_cell_formula_units_Z   2
loop_
 _symmetry_equiv_pos_site_id
 _symmetry_equiv_pos_as_xyz
  1  'x, y, z'
loop_
 _atom_site_type_symbol
 _atom_site_label
 _atom_site_symmetry_multiplicity
 _atom_site_fract_x
 _atom_site_fract_y
 _atom_site_fract_z
 _atom_site_occupancy
  Mg  Mg0  1  0.00005400  0.00000300  0.00006900  1
  Mg  Mg1  1  0.00004400  0.50004000  0.49995500  1
  Ni  Ni2  1  0.50037400  0.75006700  0.25007500  1
  Ni  Ni3  1  0.50008600  0.24997700  0.75005000  1
  Ni  Ni4  1  0.99985700  0.99998000  0.50002500  1
  Ni  Ni5  1  0.00007900  0.49999000  0.99998600  1
  Ni  Ni6  1  0.50002400  0.50019400  0.49999400  1
  Ni  Ni7  1  0.49986000  0.99989500  0.99983900  1
  Ni  Ni8  1  0.49995100  0.00028400  0.50015900  1
  Ni  Ni9  1  0.50004300  0.49994600  0.99992100  1
  S  S10  1  0.73557300  0.36779900  0.10292500  1
  S  S11  1  0.73555500  0.86779600  0.60309400  1
  S  S12  1  0.26434600  0.13216400  0.39698600  1
  S  S13  1  0.26452700  0.63220800  0.89696000  1
  S  S14  1  0.74468100  0.60297100  0.88643900  1
  S  S15  1  0.74451200  0.10304500  0.38638300  1
  S  S16  1  0.28317000  0.14164800  0.88640000  1
  S  S17  1  0.28329400  0.64169600  0.38637500  1
  S  S18  1  0.74463700  0.14158200  0.88645000  1
  S  S19  1  0.74463600  0.64164400  0.38643700  1
  S  S20  1  0.71704100  0.35846700  0.61375700  1
  S  S21  1  0.71688700  0.85835900  0.11361800  1
  S  S22  1  0.25515000  0.35806900  0.61356900  1
  S  S23  1  0.25516700  0.85799100  0.11352800  1
  S  S24  1  0.25511200  0.89709700  0.61350900  1
  S  S25  1  0.25534000  0.39709000  0.11349600  1
loop_
 _atom_site_moment_label
 _atom_site_moment_crystalaxis_x
 _atom_site_moment_crystalaxis_y
 _atom_site_moment_crystalaxis_z
  Mg0  0.00099828  0.00049992  0.00086508
  Mg1  0.00099828  0.00049992  0.00086508
  Ni2  -1.59625699  -0.79937113  -1.38326851
  Ni3  1.56231532  0.78237387  1.35385567
  Ni4  0.86651099  0.43393005  0.75089247
  Ni5  0.86551270  0.43343013  0.75002739
  Ni6  0.88048697  0.44092892  0.76300364
  Ni7  0.87749212  0.43942916  0.76040839
  Ni8  0.87948869  0.44042900  0.76213856
  Ni9  0.87449726  0.43792940  0.75781314
  S10  -0.30248022  -0.15147558  -0.26212030
  S11  -0.30846993  -0.15447510  -0.26731080
  S12  -0.30347850  -0.15197550  -0.26298538
  S13  -0.30747164  -0.15397518  -0.26644572
  S14  -0.14874440  -0.07448799  -0.12889744
  S15  -0.22860716  -0.11448154  -0.19810412
  S16  -0.15173925  -0.07598775  -0.13149269
  S17  -0.23160202  -0.11598130  -0.20069937
  S18  -0.14874440  -0.07448799  -0.12889744
  S19  -0.22760888  -0.11398163  -0.19723904
  S20  -0.15373582  -0.07698759  -0.13322286
  S21  -0.23060373  -0.11548138  -0.19983429
  S22  -0.14974268  -0.07498791  -0.12976252
  S23  -0.22760888  -0.11398163  -0.19723904
  S24  -0.14874440  -0.07448799  -0.12889744
  S25  -0.22760888  -0.11398163  -0.19723904
