# generated using pymatgen
data_MgCo2Ge
_symmetry_space_group_name_H-M   'P 1'
_cell_length_a   9.79800964
_cell_length_b   14.08694266
_cell_length_c   10.00104579
_cell_angle_alpha   90.12346011
_cell_angle_beta   89.99726349
_cell_angle_gamma   89.99256729
_symmetry_Int_Tables_number   1
_chemical_formula_structural   MgCo2Ge
_chemical_formula_sum   'Mg2 Co4 Ge2'
_cell_volume   1380.38112660
_cell_formula_units_Z   2
loop_
 _symmetry_equiv_pos_site_id
 _symmetry_equiv_pos_as_xyz
  1  'x, y, z'
loop_
 _atom_site_type_symbol
 _atom_site_label
 _atom_site_symmetry_multiplicity
 _atom_site_fract_x
 _atom_site_fract_y
 _atom_site_fract_z
 _atom_site_occupancy
  Mg  Mg0  1  0.99994100  0.00000000  0.00000300  1
  Mg  Mg1  1  0.49958200  0.50000200  0.50000000  1
  Co  Co2  1  0.77460800  0.49999600  0.49999100  1
  Co  Co3  1  0.72576800  0.99999900  0.00000100  1
  Co  Co4  1  0.27436500  0.99999900  0.00000200  1
  Co  Co5  1  0.22604800  0.49999800  0.50000600  1
  Ge  Ge6  1  0.49941600  0.00000200  0.99999200  1
  Ge  Ge7  1  0.00027100  0.50000500  0.50000400  1
loop_
 _atom_site_moment_label
 _atom_site_moment_crystalaxis_x
 _atom_site_moment_crystalaxis_y
 _atom_site_moment_crystalaxis_z
  Mg0  -0.00048681  -0.00071334  -0.00050557
  Mg1  -0.00097363  -0.00142668  -0.00101114
  Co2  -0.87869714  -1.28757486  -0.91255732
  Co3  -1.04470032  -1.53082307  -1.08495735
  Co4  0.92251030  1.35177526  0.95805880
  Co5  0.78474227  1.14990065  0.81498194
  Ge6  0.03212965  0.04708030  0.03336775
  Ge7  -0.00438132  -0.00642004  -0.00455015
