# generated using pymatgen
data_LiMnSe2
_symmetry_space_group_name_H-M   'P 1'
_cell_length_a   4.27897200
_cell_length_b   7.07648372
_cell_length_c   5.97956953
_cell_angle_alpha   81.26273181
_cell_angle_beta   89.95481053
_cell_angle_gamma   90.02968511
_symmetry_Int_Tables_number   1
_chemical_formula_structural   LiMnSe2
_chemical_formula_sum   'Li2 Mn2 Se4'
_cell_volume   178.96055524
_cell_formula_units_Z   2
loop_
 _symmetry_equiv_pos_site_id
 _symmetry_equiv_pos_as_xyz
  1  'x, y, z'
loop_
 _atom_site_type_symbol
 _atom_site_label
 _atom_site_symmetry_multiplicity
 _atom_site_fract_x
 _atom_site_fract_y
 _atom_site_fract_z
 _atom_site_occupancy
  Li  Li0  1  0.99949500  0.06019200  0.87205500  1
  Li  Li1  1  0.49969000  0.56021400  0.87230200  1
  Mn  Mn2  1  0.00037800  0.62977800  0.35561700  1
  Mn  Mn3  1  0.50026200  0.12980400  0.35548900  1
  Se  Se4  1  0.49960200  0.20824500  0.96496900  1
  Se  Se5  1  0.99977200  0.70821500  0.96516600  1
  Se  Se6  1  0.00036400  0.26842500  0.45528300  1
  Se  Se7  1  0.50043600  0.76846100  0.45552000  1
loop_
 _atom_site_moment_label
 _atom_site_moment_crystalaxis_x
 _atom_site_moment_crystalaxis_y
 _atom_site_moment_crystalaxis_z
  Mn2  0.00072023  0.29619204  -3.63206662
  Mn3  -0.00072023  -0.29619204  3.63206662
  Se4  0.00001141  0.00469101  -0.05752370
  Se5  -0.00001141  -0.00469101  0.05752370
  Se6  0.00001701  0.00699537  -0.08578096
  Se7  -0.00001701  -0.00699537  0.08578096
