# generated using pymatgen
data_CsV5Se8
_symmetry_space_group_name_H-M   'P 1'
_cell_length_a   3.70512442
_cell_length_b   18.15809440
_cell_length_c   9.57554885
_cell_angle_alpha   104.47825915
_cell_angle_beta   101.14218466
_cell_angle_gamma   90.02689530
_symmetry_Int_Tables_number   1
_chemical_formula_structural   CsV5Se8
_chemical_formula_sum   'Cs2 V10 Se16'
_cell_volume   611.19987884
_cell_formula_units_Z   2
loop_
 _symmetry_equiv_pos_site_id
 _symmetry_equiv_pos_as_xyz
  1  'x, y, z'
loop_
 _atom_site_type_symbol
 _atom_site_label
 _atom_site_symmetry_multiplicity
 _atom_site_fract_x
 _atom_site_fract_y
 _atom_site_fract_z
 _atom_site_occupancy
  Cs  Cs0  1  0.50044000  0.24939000  0.00074200  1
  Cs  Cs1  1  0.50085600  0.75087000  0.00170300  1
  V  V2  1  0.65555400  0.99752900  0.31109300  1
  V  V3  1  0.28738900  0.32678100  0.57475000  1
  V  V4  1  0.28823400  0.82547200  0.57650800  1
  V  V5  1  0.71067700  0.17231400  0.42164700  1
  V  V6  1  0.71223200  0.67353900  0.42379100  1
  V  V7  1  0.99432900  0.00238100  0.98852700  1
  V  V8  1  0.00128700  0.49916600  0.00237400  1
  V  V9  1  0.34874600  0.00006000  0.69857500  1
  V  V10  1  0.34707400  0.50061600  0.69508800  1
  V  V11  1  0.65287100  0.50054400  0.30426400  1
  Se  Se12  1  0.57256000  0.08383900  0.14444300  1
  Se  Se13  1  0.57243400  0.58677100  0.14418300  1
  Se  Se14  1  0.42818800  0.41407400  0.85630500  1
  Se  Se15  1  0.42759500  0.91346700  0.85599500  1
  Se  Se16  1  0.09060500  0.41568600  0.18054700  1
  Se  Se17  1  0.08754400  0.91634300  0.17627500  1
  Se  Se18  1  0.90880300  0.08689400  0.81769000  1
  Se  Se19  1  0.91033800  0.58383300  0.82085900  1
  Se  Se20  1  0.16355500  0.24319800  0.32736700  1
  Se  Se21  1  0.16380500  0.74347600  0.32741700  1
  Se  Se22  1  0.83527800  0.25738300  0.67047700  1
  Se  Se23  1  0.83632900  0.75545200  0.67268800  1
  Se  Se24  1  0.24326600  0.08091600  0.48624000  1
  Se  Se25  1  0.24127700  0.57855700  0.48199200  1
  Se  Se26  1  0.75834400  0.42153100  0.51672100  1
  Se  Se27  1  0.76039000  0.91992200  0.52174000  1
loop_
 _atom_site_moment_label
 _atom_site_moment_crystalaxis_x
 _atom_site_moment_crystalaxis_y
 _atom_site_moment_crystalaxis_z
  Cs0  0.00001146  0.00000264  -0.00099706
  Cs1  0.00001146  0.00000264  -0.00099706
  V2  0.02018709  0.00465016  -1.75582181
  V3  0.02029026  0.00467393  -1.76479535
  V4  0.02041636  0.00470298  -1.77576300
  V5  0.02100099  0.00483765  -1.82661304
  V6  0.02053099  0.00472938  -1.78573360
  V7  -0.01951075  -0.00449437  1.69699530
  V8  -0.02026733  -0.00466865  1.76280123
  V9  -0.01925855  -0.00443627  1.67505999
  V10  -0.01980879  -0.00456302  1.72291885
  V11  -0.01968270  -0.00453398  1.71195120
  Se12  -0.00009171  -0.00002113  0.00797648
  Se13  0.00057317  0.00013203  -0.04985298
  Se14  0.00057317  0.00013203  -0.04985298
  Se15  0.00057317  0.00013203  -0.04985298
  Se16  0.00110049  0.00025350  -0.09571771
  Se17  -0.00042415  -0.00009770  0.03689120
  Se18  0.00090561  0.00020861  -0.07876770
  Se19  0.00110049  0.00025350  -0.09571771
  Se20  -0.00100878  -0.00023238  0.08774124
  Se21  -0.00096293  -0.00022181  0.08375300
  Se22  -0.00095146  -0.00021917  0.08275594
  Se23  -0.00098585  -0.00022709  0.08574712
  Se24  -0.00051585  -0.00011883  0.04486768
  Se25  0.00025220  0.00005809  -0.02193531
  Se26  0.00021781  0.00005017  -0.01894413
  Se27  -0.00014902  -0.00003433  0.01296177
