# generated using pymatgen
data_KMnBi
_symmetry_space_group_name_H-M   'P 1'
_cell_length_a   4.72657900
_cell_length_b   4.72657600
_cell_length_c   8.37921400
_cell_angle_alpha   89.99999316
_cell_angle_beta   90.00004476
_cell_angle_gamma   90.00009698
_symmetry_Int_Tables_number   1
_chemical_formula_structural   KMnBi
_chemical_formula_sum   'K2 Mn2 Bi2'
_cell_volume   187.19612250
_cell_formula_units_Z   2
loop_
 _symmetry_equiv_pos_site_id
 _symmetry_equiv_pos_as_xyz
  1  'x, y, z'
loop_
 _atom_site_type_symbol
 _atom_site_label
 _atom_site_symmetry_multiplicity
 _atom_site_fract_x
 _atom_site_fract_y
 _atom_site_fract_z
 _atom_site_occupancy
  K  K0  1  0.00000000  0.49999900  0.34472100  1
  K  K1  1  0.50000000  0.00000100  0.65528000  1
  Mn  Mn2  1  0.50000000  0.50000000  0.00000000  1
  Mn  Mn3  1  0.00000000  0.00000000  0.00000000  1
  Bi  Bi4  1  0.00000000  0.50000000  0.80692000  1
  Bi  Bi5  1  0.50000000  0.00000000  0.19308000  1
loop_
 _atom_site_moment_label
 _atom_site_moment_crystalaxis_x
 _atom_site_moment_crystalaxis_y
 _atom_site_moment_crystalaxis_z
  Mn2  -0.00000142  0.00000047  -3.95800000
  Mn3  0.00000142  -0.00000047  3.95900000
