# generated using pymatgen
data_MgGeRu2
_symmetry_space_group_name_H-M   'P 1'
_cell_length_a   10.58356491
_cell_length_b   10.65351674
_cell_length_c   17.72790318
_cell_angle_alpha   86.06715701
_cell_angle_beta   104.78819817
_cell_angle_gamma   61.79087672
_symmetry_Int_Tables_number   1
_chemical_formula_structural   MgGeRu2
_chemical_formula_sum   'Mg2 Ge2 Ru4'
_cell_volume   1660.56733300
_cell_formula_units_Z   2
loop_
 _symmetry_equiv_pos_site_id
 _symmetry_equiv_pos_as_xyz
  1  'x, y, z'
loop_
 _atom_site_type_symbol
 _atom_site_label
 _atom_site_symmetry_multiplicity
 _atom_site_fract_x
 _atom_site_fract_y
 _atom_site_fract_z
 _atom_site_occupancy
  Mg  Mg0  1  0.00001100  0.00004600  0.00002500  1
  Mg  Mg1  1  0.00004700  0.50001100  0.49991500  1
  Ge  Ge2  1  0.99992300  0.75035100  0.24980900  1
  Ge  Ge3  1  0.00001400  0.24956000  0.75022000  1
  Ru  Ru4  1  0.99985500  0.36380300  0.63633500  1
  Ru  Ru5  1  0.00013300  0.63632000  0.36368500  1
  Ru  Ru6  1  0.00001200  0.86390300  0.13591600  1
  Ru  Ru7  1  0.00000500  0.13600900  0.86409200  1
loop_
 _atom_site_moment_label
 _atom_site_moment_crystalaxis_x
 _atom_site_moment_crystalaxis_y
 _atom_site_moment_crystalaxis_z
  Mg0  -0.00003527  -0.00197983  -0.00334151
  Mg1  0.00004409  0.00247478  0.00417689
  Ge2  -0.00017636  -0.00989913  -0.01670756
  Ge3  0.00004409  0.00247478  0.00417689
  Ru4  -0.02110986  -1.18492551  -1.99989513
  Ru5  -0.01252130  -0.70283802  -1.18623688
  Ru6  0.01487566  0.83499137  1.40928282
  Ru7  0.01681558  0.94388177  1.59306600
