# generated using pymatgen
data_Cs(CrS2)2
_symmetry_space_group_name_H-M   'P 1'
_cell_length_a   7.86305741
_cell_length_b   7.86341080
_cell_length_c   7.86339200
_cell_angle_alpha   60.00325664
_cell_angle_beta   60.00177107
_cell_angle_gamma   60.00168159
_symmetry_Int_Tables_number   1
_chemical_formula_structural   Cs(CrS2)2
_chemical_formula_sum   'Cs2 Cr4 S8'
_cell_volume   343.81067744
_cell_formula_units_Z   2
loop_
 _symmetry_equiv_pos_site_id
 _symmetry_equiv_pos_as_xyz
  1  'x, y, z'
loop_
 _atom_site_type_symbol
 _atom_site_label
 _atom_site_symmetry_multiplicity
 _atom_site_fract_x
 _atom_site_fract_y
 _atom_site_fract_z
 _atom_site_occupancy
  Cs  Cs0  1  0.00000200  0.99999900  0.00000000  1
  Cs  Cs1  1  0.74999800  0.75000100  0.75000000  1
  Cr  Cr2  1  0.37500000  0.37500000  0.37500000  1
  Cr  Cr3  1  0.37500000  0.37500000  0.87500000  1
  Cr  Cr4  1  0.37500000  0.87500000  0.37500000  1
  Cr  Cr5  1  0.87500000  0.37500000  0.37500000  1
  S  S6  1  0.15577500  0.15577800  0.15577600  1
  S  S7  1  0.59422300  0.59422100  0.21733100  1
  S  S8  1  0.21732900  0.59422200  0.59422300  1
  S  S9  1  0.59422300  0.21733100  0.59422200  1
  S  S10  1  0.53267200  0.15577800  0.15577700  1
  S  S11  1  0.15577700  0.53266900  0.15577800  1
  S  S12  1  0.59422500  0.59422200  0.59422400  1
  S  S13  1  0.15577700  0.15577900  0.53266900  1
loop_
 _atom_site_moment_label
 _atom_site_moment_crystalaxis_x
 _atom_site_moment_crystalaxis_y
 _atom_site_moment_crystalaxis_z
  Cs0  -0.00000113  -0.00000113  -0.04699887
  Cs1  -0.00000113  -0.00000113  -0.04699887
  Cr2  0.00007179  0.00007169  2.98892827
  Cr3  0.00007186  0.00007176  2.99192819
  Cr4  0.00007176  0.00007167  2.98792829
  Cr5  0.00007183  0.00007174  2.99092822
  S6  -0.00000603  -0.00000602  -0.25099398
  S7  -0.00000596  -0.00000595  -0.24799405
  S8  -0.00000596  -0.00000595  -0.24799405
  S9  -0.00000591  -0.00000590  -0.24599410
  S10  -0.00000596  -0.00000595  -0.24799405
  S11  -0.00000591  -0.00000590  -0.24599410
  S12  -0.00000603  -0.00000602  -0.25099398
  S13  -0.00000596  -0.00000595  -0.24799405
