# generated using pymatgen
data_KCr5Te8
_symmetry_space_group_name_H-M   'P 1'
_cell_length_a   4.02065649
_cell_length_b   9.37302675
_cell_length_c   10.63844383
_cell_angle_alpha   105.35093391
_cell_angle_beta   79.07358750
_cell_angle_gamma   89.97953256
_symmetry_Int_Tables_number   1
_chemical_formula_structural   KCr5Te8
_chemical_formula_sum   'K1 Cr5 Te8'
_cell_volume   379.06384323
_cell_formula_units_Z   1
loop_
 _symmetry_equiv_pos_site_id
 _symmetry_equiv_pos_as_xyz
  1  'x, y, z'
loop_
 _atom_site_type_symbol
 _atom_site_label
 _atom_site_symmetry_multiplicity
 _atom_site_fract_x
 _atom_site_fract_y
 _atom_site_fract_z
 _atom_site_occupancy
  K  K0  1  0.50003200  0.49999400  0.00001400  1
  Cr  Cr1  1  0.70373800  0.67830700  0.59271500  1
  Cr  Cr2  1  0.29623800  0.32168700  0.40729400  1
  Cr  Cr3  1  0.99999600  0.00000400  0.00000400  1
  Cr  Cr4  1  0.66082400  0.00643000  0.67863000  1
  Cr  Cr5  1  0.33918900  0.99358400  0.32135000  1
  Te  Te6  1  0.42755100  0.16182100  0.14412500  1
  Te  Te7  1  0.57243300  0.83819600  0.85588800  1
  Te  Te8  1  0.91215400  0.82948300  0.17604200  1
  Te  Te9  1  0.08785800  0.17052300  0.82395900  1
  Te  Te10  1  0.82615300  0.48877200  0.34753700  1
  Te  Te11  1  0.17381500  0.51122900  0.65248100  1
  Te  Te12  1  0.75700400  0.15771700  0.48518600  1
  Te  Te13  1  0.24301500  0.84225200  0.51477400  1
loop_
 _atom_site_moment_label
 _atom_site_moment_crystalaxis_x
 _atom_site_moment_crystalaxis_y
 _atom_site_moment_crystalaxis_z
  K0  0.00076485  -0.00000616  -0.00200038
  Cr1  1.12777653  -0.00908600  -2.94955515
  Cr2  1.12739410  -0.00908292  -2.94855496
  Cr3  -1.15378155  0.00929552  3.01756795
  Cr4  -1.13695477  0.00915995  2.97355967
  Cr5  -1.13695477  0.00915995  2.97355967
  Te6  0.03212385  -0.00025881  -0.08401581
  Te7  0.03212385  -0.00025881  -0.08401581
  Te8  0.04856820  -0.00039129  -0.12702391
  Te9  0.04856820  -0.00039129  -0.12702391
  Te10  -0.05736401  0.00046216  0.15002824
  Te11  -0.05736401  0.00046216  0.15002824
  Te12  0.01720920  -0.00013865  -0.04500847
  Te13  0.01720920  -0.00013865  -0.04500847
