# generated using pymatgen
data_Li2Fe3S4
_symmetry_space_group_name_H-M   'P 1'
_cell_length_a   5.95621484
_cell_length_b   6.85581287
_cell_length_c   6.85695624
_cell_angle_alpha   89.13485752
_cell_angle_beta   93.02900592
_cell_angle_gamma   86.96562269
_symmetry_Int_Tables_number   1
_chemical_formula_structural   Li2Fe3S4
_chemical_formula_sum   'Li4 Fe6 S8'
_cell_volume   279.17353030
_cell_formula_units_Z   2
loop_
 _symmetry_equiv_pos_site_id
 _symmetry_equiv_pos_as_xyz
  1  'x, y, z'
loop_
 _atom_site_type_symbol
 _atom_site_label
 _atom_site_symmetry_multiplicity
 _atom_site_fract_x
 _atom_site_fract_y
 _atom_site_fract_z
 _atom_site_occupancy
  Li  Li0  1  0.38760900  0.73228800  0.47827600  1
  Li  Li1  1  0.88801900  0.52170200  0.26681600  1
  Li  Li2  1  0.11229300  0.47830300  0.73226100  1
  Li  Li3  1  0.61208900  0.26678800  0.52183800  1
  Fe  Fe4  1  0.10705300  0.98913900  0.76869000  1
  Fe  Fe5  1  0.60731800  0.23102200  0.01133300  1
  Fe  Fe6  1  0.39292200  0.76865100  0.98910800  1
  Fe  Fe7  1  0.89271700  0.01134300  0.23099200  1
  Fe  Fe8  1  0.74998200  0.76034300  0.76031300  1
  Fe  Fe9  1  0.25003600  0.23983200  0.23985600  1
  S  S10  1  0.97966500  0.77377700  0.51740600  1
  S  S11  1  0.47987500  0.48260700  0.22591000  1
  S  S12  1  0.52021800  0.51746400  0.77375800  1
  S  S13  1  0.02021500  0.22590100  0.48261700  1
  S  S14  1  0.99249900  0.24098300  0.99327000  1
  S  S15  1  0.49213300  0.00673100  0.75997200  1
  S  S16  1  0.50755900  0.99318100  0.24090200  1
  S  S17  1  0.00780000  0.75994500  0.00668200  1
loop_
 _atom_site_moment_label
 _atom_site_moment_crystalaxis_x
 _atom_site_moment_crystalaxis_y
 _atom_site_moment_crystalaxis_z
  Li0  0.00003161  -0.00004284  0.00300187
  Li1  0.00003161  -0.00004284  0.00300187
  Li2  0.00003161  -0.00004284  0.00300187
  Li3  0.00003161  -0.00004284  0.00300187
  Fe4  0.03008609  -0.04076852  2.85677932
  Fe5  0.02999124  -0.04064000  2.84777371
  Fe6  0.03001232  -0.04066856  2.84977495
  Fe7  0.02997017  -0.04061145  2.84577246
  Fe8  -0.02450093  0.03320029  -2.32644900
  Fe9  -0.02430071  0.03292897  -2.30743716
  S10  0.00005269  -0.00007140  0.00500312
  S11  0.00006323  -0.00008568  0.00600374
  S12  0.00005269  -0.00007140  0.00500312
  S13  0.00006323  -0.00008568  0.00600374
  S14  0.00042152  -0.00057119  0.04002493
  S15  0.00041098  -0.00055691  0.03902431
  S16  0.00043206  -0.00058547  0.04102555
  S17  0.00041098  -0.00055691  0.03902431
