# generated using pymatgen
data_BaCoSe2
_symmetry_space_group_name_H-M   'P 1'
_cell_length_a   5.97359893
_cell_length_b   11.81796136
_cell_length_c   5.97358768
_cell_angle_alpha   75.36487262
_cell_angle_beta   89.95769916
_cell_angle_gamma   104.63488769
_symmetry_Int_Tables_number   1
_chemical_formula_structural   BaCoSe2
_chemical_formula_sum   'Ba4 Co4 Se8'
_cell_volume   393.84876928
_cell_formula_units_Z   4
loop_
 _symmetry_equiv_pos_site_id
 _symmetry_equiv_pos_as_xyz
  1  'x, y, z'
loop_
 _atom_site_type_symbol
 _atom_site_label
 _atom_site_symmetry_multiplicity
 _atom_site_fract_x
 _atom_site_fract_y
 _atom_site_fract_z
 _atom_site_occupancy
  Ba  Ba0  1  0.49991100  0.99998500  0.49993500  1
  Ba  Ba1  1  0.74997700  0.50003200  0.75006600  1
  Ba  Ba2  1  0.00010500  0.99998500  0.00005000  1
  Ba  Ba3  1  0.25008600  0.50003200  0.24987000  1
  Co  Co4  1  0.37500100  0.25000500  0.12499200  1
  Co  Co5  1  0.12500400  0.75000600  0.87500000  1
  Co  Co6  1  0.62500200  0.75000700  0.37499900  1
  Co  Co7  1  0.87500000  0.25000700  0.62500300  1
  Se  Se8  1  0.07982000  0.15974000  0.42020400  1
  Se  Se9  1  0.32976000  0.65976200  0.67021000  1
  Se  Se10  1  0.57975300  0.15974200  0.92027400  1
  Se  Se11  1  0.82978500  0.65976200  0.17019600  1
  Se  Se12  1  0.67016900  0.34024600  0.32976000  1
  Se  Se13  1  0.92020200  0.84022300  0.57981900  1
  Se  Se14  1  0.17023800  0.34024500  0.82982700  1
  Se  Se15  1  0.42018900  0.84022300  0.07979500  1
loop_
 _atom_site_moment_label
 _atom_site_moment_crystalaxis_x
 _atom_site_moment_crystalaxis_y
 _atom_site_moment_crystalaxis_z
  Co4  -0.70149285  -0.93449348  0.23640396
  Co5  -0.70858580  -0.94394235  0.23879430
  Co6  0.70716721  0.94205257  -0.23831623
  Co7  0.70433003  0.93827303  -0.23736010
