# generated using pymatgen
data_Li5FeS4
_symmetry_space_group_name_H-M   'P 1'
_cell_length_a   7.69321686
_cell_length_b   9.26227289
_cell_length_c   9.26229172
_cell_angle_alpha   89.16243415
_cell_angle_beta   89.37867698
_cell_angle_gamma   90.61541828
_symmetry_Int_Tables_number   1
_chemical_formula_structural   Li5FeS4
_chemical_formula_sum   'Li20 Fe4 S16'
_cell_volume   659.85157148
_cell_formula_units_Z   4
loop_
 _symmetry_equiv_pos_site_id
 _symmetry_equiv_pos_as_xyz
  1  'x, y, z'
loop_
 _atom_site_type_symbol
 _atom_site_label
 _atom_site_symmetry_multiplicity
 _atom_site_fract_x
 _atom_site_fract_y
 _atom_site_fract_z
 _atom_site_occupancy
  Li  Li0  1  0.74967800  0.24987500  0.74988800  1
  Li  Li1  1  0.99999400  0.50013200  0.49987500  1
  Li  Li2  1  0.25003700  0.75025600  0.25003900  1
  Li  Li3  1  0.50011000  0.99986000  0.00014000  1
  Li  Li4  1  0.83974800  0.23174300  0.12246100  1
  Li  Li5  1  0.08789800  0.48149200  0.87260200  1
  Li  Li6  1  0.33972900  0.73189000  0.62224400  1
  Li  Li7  1  0.58804000  0.98141200  0.37258600  1
  Li  Li8  1  0.41226100  0.37258500  0.98138000  1
  Li  Li9  1  0.66015800  0.62246000  0.73180800  1
  Li  Li10  1  0.91209300  0.87259600  0.48138300  1
  Li  Li11  1  0.16020200  0.12219800  0.23194000  1
  Li  Li12  1  0.33978400  0.37754500  0.26821800  1
  Li  Li13  1  0.58781700  0.62746300  0.01863600  1
  Li  Li14  1  0.83993900  0.87778600  0.76799800  1
  Li  Li15  1  0.08792900  0.12730500  0.51860500  1
  Li  Li16  1  0.91208100  0.51853700  0.12746800  1
  Li  Li17  1  0.16032300  0.76831400  0.87751700  1
  Li  Li18  1  0.41196700  0.01857300  0.62734800  1
  Li  Li19  1  0.66017000  0.26809100  0.37772500  1
  Fe  Fe20  1  0.65487900  0.61833400  0.38142800  1
  Fe  Fe21  1  0.84534500  0.88108100  0.11810800  1
  Fe  Fe22  1  0.15464800  0.11898900  0.88201200  1
  Fe  Fe23  1  0.34495500  0.38166700  0.61870500  1
  S  S24  1  0.44139400  0.19049400  0.80948400  1
  S  S25  1  0.68758300  0.44102100  0.55904800  1
  S  S26  1  0.94164900  0.69044900  0.30948500  1
  S  S27  1  0.18782200  0.94097500  0.05898300  1
  S  S28  1  0.81258300  0.05913600  0.94089000  1
  S  S29  1  0.05833800  0.30955000  0.69050700  1
  S  S30  1  0.31238100  0.55888500  0.44103400  1
  S  S31  1  0.55838900  0.80944700  0.19056700  1
  S  S32  1  0.12672000  0.32525300  0.07532100  1
  S  S33  1  0.37330200  0.57537300  0.82533800  1
  S  S34  1  0.62669100  0.82529700  0.57531900  1
  S  S35  1  0.87335000  0.07540600  0.32539000  1
  S  S36  1  0.62671500  0.42470800  0.17473300  1
  S  S37  1  0.87330400  0.67484300  0.92480100  1
  S  S38  1  0.12666200  0.92439900  0.67443400  1
  S  S39  1  0.37333200  0.17458000  0.42454400  1
loop_
 _atom_site_moment_label
 _atom_site_moment_crystalaxis_x
 _atom_site_moment_crystalaxis_y
 _atom_site_moment_crystalaxis_z
  Li0  0.00025693  0.00030213  0.00091172
  Li2  -0.00025693  -0.00030213  -0.00091172
  Li4  -0.00025693  -0.00030213  -0.00091172
  Li6  0.00025693  0.00030213  0.00091172
  Li9  -0.00025693  -0.00030213  -0.00091172
  Li11  0.00025693  0.00030213  0.00091172
  Li12  0.00025693  0.00030213  0.00091172
  Li14  -0.00025693  -0.00030213  -0.00091172
  Li17  0.00025693  0.00030213  0.00091172
  Li19  -0.00025693  -0.00030213  -0.00091172
  Fe20  -0.90953029  -1.06952889  -3.22750308
  Fe21  -0.91261344  -1.07315441  -3.23844377
  Fe22  0.91415502  1.07496717  3.24391412
  Fe23  0.91287037  1.07345653  3.23935549
  S24  0.03237311  0.03806798  0.11487723
  S25  -0.03006075  -0.03534884  -0.10667171
  S26  -0.03288697  -0.03867223  -0.11670068
  S27  0.02928996  0.03444246  0.10393654
  S28  -0.02954689  -0.03474458  -0.10484826
  S29  0.03237311  0.03806798  0.11487723
  S30  0.02928996  0.03444246  0.10393654
  S31  -0.03288697  -0.03867223  -0.11670068
  S32  0.01978357  0.02326376  0.07020275
  S33  0.01978357  0.02326376  0.07020275
  S34  -0.01978357  -0.02326376  -0.07020275
  S35  -0.01952664  -0.02296164  -0.06929103
  S36  -0.01978357  -0.02326376  -0.07020275
  S37  -0.02004050  -0.02356589  -0.07111447
  S38  0.01926971  0.02265951  0.06837930
  S39  0.01952664  0.02296164  0.06929103
