# generated using pymatgen
data_MgGaCo2
_symmetry_space_group_name_H-M   'P 1'
_cell_length_a   10.67601205
_cell_length_b   10.57031685
_cell_length_c   17.45700372
_cell_angle_alpha   86.91752650
_cell_angle_beta   72.27450741
_cell_angle_gamma   59.65708222
_symmetry_Int_Tables_number   1
_chemical_formula_structural   MgGaCo2
_chemical_formula_sum   'Mg2 Ga2 Co4'
_cell_volume   1607.39950385
_cell_formula_units_Z   2
loop_
 _symmetry_equiv_pos_site_id
 _symmetry_equiv_pos_as_xyz
  1  'x, y, z'
loop_
 _atom_site_type_symbol
 _atom_site_label
 _atom_site_symmetry_multiplicity
 _atom_site_fract_x
 _atom_site_fract_y
 _atom_site_fract_z
 _atom_site_occupancy
  Mg  Mg0  1  0.99998400  0.00011600  0.99990000  1
  Mg  Mg1  1  0.00000800  0.49978300  0.50011800  1
  Ga  Ga2  1  0.00004900  0.25012100  0.74985300  1
  Ga  Ga3  1  0.99997500  0.74980700  0.25022300  1
  Co  Co4  1  0.99993100  0.63295000  0.36704400  1
  Co  Co5  1  0.99994600  0.86725900  0.13289400  1
  Co  Co6  1  0.00010000  0.13297200  0.86695600  1
  Co  Co7  1  0.00000800  0.36699200  0.63301200  1
loop_
 _atom_site_moment_label
 _atom_site_moment_crystalaxis_x
 _atom_site_moment_crystalaxis_y
 _atom_site_moment_crystalaxis_z
  Mg0  0.00099968  0.00000016  0.00000080
  Mg1  0.00099968  0.00000016  0.00000080
  Ga2  -0.12495945  -0.00002004  -0.00009982
  Ga3  0.12795847  0.00002052  0.00010222
  Co4  -1.81141215  -0.00029055  -0.00144700
  Co5  -1.90138296  -0.00030498  -0.00151887
  Co6  2.04233721  0.00032759  0.00163147
  Co7  1.45652732  0.00023363  0.00116351
