# generated using pymatgen
data_NaFeAs
_symmetry_space_group_name_H-M   'P 1'
_cell_length_a   3.96819118
_cell_length_b   19.77230535
_cell_length_c   6.80270166
_cell_angle_alpha   80.41765747
_cell_angle_beta   89.95528907
_cell_angle_gamma   95.76212738
_symmetry_Int_Tables_number   1
_chemical_formula_structural   NaFeAs
_chemical_formula_sum   'Na8 Fe8 As8'
_cell_volume   523.55237044
_cell_formula_units_Z   8
loop_
 _symmetry_equiv_pos_site_id
 _symmetry_equiv_pos_as_xyz
  1  'x, y, z'
loop_
 _atom_site_type_symbol
 _atom_site_label
 _atom_site_symmetry_multiplicity
 _atom_site_fract_x
 _atom_site_fract_y
 _atom_site_fract_z
 _atom_site_occupancy
  Na  Na0  1  0.82554700  0.65091200  0.84214300  1
  Na  Na1  1  0.32552900  0.65101500  0.34199200  1
  Na  Na2  1  0.67446500  0.34908100  0.65786600  1
  Na  Na3  1  0.17446700  0.34898400  0.15799800  1
  Na  Na4  1  0.59102200  0.18206200  0.40850100  1
  Na  Na5  1  0.09103200  0.18204400  0.90862600  1
  Na  Na6  1  0.90898300  0.81791800  0.09151400  1
  Na  Na7  1  0.40894500  0.81792500  0.59136900  1
  Fe  Fe8  1  0.74995800  0.50000700  0.25001500  1
  Fe  Fe9  1  0.25001200  0.49999700  0.74999100  1
  Fe  Fe10  1  0.49991000  0.00000100  0.49988400  1
  Fe  Fe11  1  0.00013000  0.00006500  0.00005200  1
  Fe  Fe12  1  0.52231200  0.04424000  0.14569600  1
  Fe  Fe13  1  0.02233800  0.04424700  0.64556100  1
  Fe  Fe14  1  0.97770400  0.95580400  0.35427100  1
  Fe  Fe15  1  0.47764700  0.95573000  0.85443700  1
  As  As16  1  0.95979900  0.91968900  0.70699200  1
  As  As17  1  0.45988600  0.91979300  0.20717500  1
  As  As18  1  0.54020000  0.08028200  0.79292200  1
  As  As19  1  0.04011000  0.08020900  0.29292200  1
  As  As20  1  0.72408600  0.44863500  0.94381800  1
  As  As21  1  0.22396500  0.44857000  0.44290400  1
  As  As22  1  0.77595700  0.55136300  0.55618900  1
  As  As23  1  0.27599200  0.55142500  0.05708800  1
loop_
 _atom_site_moment_label
 _atom_site_moment_crystalaxis_x
 _atom_site_moment_crystalaxis_y
 _atom_site_moment_crystalaxis_z
  Na0  0.00020479  0.00203892  -0.00034540
  Na1  -0.00010239  -0.00101946  0.00017270
  Na2  0.00020479  0.00203892  -0.00034540
  Na3  -0.00010239  -0.00101946  0.00017270
  Na4  0.00010239  0.00101946  -0.00017270
  Na5  -0.00010239  -0.00101946  0.00017270
  Na6  0.00010239  0.00101946  -0.00017270
  Na7  -0.00010239  -0.00101946  0.00017270
  Fe8  -0.15584207  -1.55161463  0.26284693
  Fe9  0.21236298  2.11435528  -0.35817644
  Fe10  0.25434409  2.53233294  -0.42898277
  Fe11  0.25475367  2.53641077  -0.42967356
  Fe12  0.11334900  1.12853968  -0.19117710
  Fe13  0.11590882  1.15402612  -0.19549456
  Fe14  0.11252986  1.12038402  -0.18979552
  Fe15  0.11795668  1.17441528  -0.19894853
  As16  -0.00235504  -0.02344753  0.00397206
  As17  -0.00225264  -0.02242807  0.00379936
  As18  -0.00235504  -0.02344753  0.00397206
  As19  -0.00225264  -0.02242807  0.00379936
  As20  0.00010239  0.00101946  -0.00017270
  As21  0.00071675  0.00713620  -0.00120889
  As22  0.00010239  0.00101946  -0.00017270
  As23  0.00071675  0.00713620  -0.00120889
