# generated using pymatgen
data_Na(CrS2)2
_symmetry_space_group_name_H-M   'P 1'
_cell_length_a   3.41243992
_cell_length_b   7.90050322
_cell_length_c   10.71084190
_cell_angle_alpha   74.04236373
_cell_angle_beta   80.83956736
_cell_angle_gamma   77.52622905
_symmetry_Int_Tables_number   1
_chemical_formula_structural   Na(CrS2)2
_chemical_formula_sum   'Na2 Cr4 S8'
_cell_volume   269.54640335
_cell_formula_units_Z   2
loop_
 _symmetry_equiv_pos_site_id
 _symmetry_equiv_pos_as_xyz
  1  'x, y, z'
loop_
 _atom_site_type_symbol
 _atom_site_label
 _atom_site_symmetry_multiplicity
 _atom_site_fract_x
 _atom_site_fract_y
 _atom_site_fract_z
 _atom_site_occupancy
  Na  Na0  1  0.49995900  0.24997600  0.75004900  1
  Na  Na1  1  0.49998200  0.75003300  0.24996000  1
  Cr  Cr2  1  0.24684300  0.14230500  0.36372100  1
  Cr  Cr3  1  0.75327100  0.85767800  0.63626200  1
  Cr  Cr4  1  0.24684700  0.64220900  0.86393500  1
  Cr  Cr5  1  0.75313900  0.35774800  0.13613400  1
  S  S6  1  0.64480100  0.85346200  0.85679800  1
  S  S7  1  0.64491000  0.35346300  0.35664700  1
  S  S8  1  0.35523000  0.14646400  0.14320300  1
  S  S9  1  0.35510700  0.64656000  0.64334300  1
  S  S10  1  0.15864600  0.58449900  0.09830900  1
  S  S11  1  0.15873300  0.08456400  0.59811000  1
  S  S12  1  0.84128300  0.41549700  0.90172800  1
  S  S13  1  0.84124900  0.91554000  0.40179800  1
loop_
 _atom_site_moment_label
 _atom_site_moment_crystalaxis_x
 _atom_site_moment_crystalaxis_y
 _atom_site_moment_crystalaxis_z
  Cr2  1.09598071  -1.27160105  -1.71299377
  Cr3  1.09735183  -1.27319188  -1.71513680
  Cr4  -1.10283630  1.27955519  1.72370891
  Cr5  -1.10146518  1.27796436  1.72156588
  S6  0.01279711  -0.01484772  -0.02000160
  S7  -0.01371118  0.01590827  0.02143028
  S8  0.01279711  -0.01484772  -0.02000160
  S9  -0.01371118  0.01590827  0.02143028
  S10  0.02193790  -0.02545323  -0.03428845
  S11  -0.02285197  0.02651378  0.03571713
  S12  0.02193790  -0.02545323  -0.03428845
  S13  -0.02285197  0.02651378  0.03571713
