# generated using pymatgen
data_Ca(FeSb3)4
_symmetry_space_group_name_H-M   'P 1'
_cell_length_a   7.96441957
_cell_length_b   7.96618356
_cell_length_c   7.96550102
_cell_angle_alpha   109.47610782
_cell_angle_beta   109.46742490
_cell_angle_gamma   109.47053174
_symmetry_Int_Tables_number   1
_chemical_formula_structural   Ca(FeSb3)4
_chemical_formula_sum   'Ca1 Fe4 Sb12'
_cell_volume   389.03931073
_cell_formula_units_Z   1
loop_
 _symmetry_equiv_pos_site_id
 _symmetry_equiv_pos_as_xyz
  1  'x, y, z'
loop_
 _atom_site_type_symbol
 _atom_site_label
 _atom_site_symmetry_multiplicity
 _atom_site_fract_x
 _atom_site_fract_y
 _atom_site_fract_z
 _atom_site_occupancy
  Ca  Ca0  1  0.00000000  0.00000000  0.00000000  1
  Fe  Fe1  1  0.50000000  0.50000100  0.50000100  1
  Fe  Fe2  1  0.50000000  0.00000000  0.00000000  1
  Fe  Fe3  1  0.00000000  0.00000000  0.49999900  1
  Fe  Fe4  1  0.00000000  0.49999900  0.00000000  1
  Sb  Sb5  1  0.83834500  0.50365100  0.66535200  1
  Sb  Sb6  1  0.49634500  0.33463400  0.16166400  1
  Sb  Sb7  1  0.16165600  0.49634900  0.33464900  1
  Sb  Sb8  1  0.16170300  0.82703700  0.66535900  1
  Sb  Sb9  1  0.83829600  0.17296300  0.33464100  1
  Sb  Sb10  1  0.66533900  0.16168700  0.82703300  1
  Sb  Sb11  1  0.50365500  0.66536600  0.83833600  1
  Sb  Sb12  1  0.17298600  0.33467400  0.83832600  1
  Sb  Sb13  1  0.33466600  0.16167600  0.49634700  1
  Sb  Sb14  1  0.33466100  0.83831300  0.17296700  1
  Sb  Sb15  1  0.66533500  0.83832400  0.50365300  1
  Sb  Sb16  1  0.82701400  0.66532600  0.16167400  1
loop_
 _atom_site_moment_label
 _atom_site_moment_crystalaxis_x
 _atom_site_moment_crystalaxis_y
 _atom_site_moment_crystalaxis_z
  Ca0  0.00000112  -0.00000116  -0.02800001
  Fe1  -0.00002570  0.00002663  0.64400031
  Fe2  -0.00002063  0.00002138  0.51700025
  Fe3  -0.00002682  0.00002779  0.67200033
  Fe4  -0.00002546  0.00002639  0.63800031
  Sb5  0.00000076  -0.00000079  -0.01900001
  Sb6  0.00000072  -0.00000074  -0.01800001
  Sb7  0.00000076  -0.00000079  -0.01900001
  Sb8  0.00000072  -0.00000074  -0.01800001
  Sb9  0.00000072  -0.00000074  -0.01800001
  Sb10  0.00000072  -0.00000074  -0.01800001
  Sb11  0.00000072  -0.00000074  -0.01800001
  Sb12  0.00000076  -0.00000079  -0.01900001
  Sb13  0.00000076  -0.00000079  -0.01900001
  Sb14  0.00000072  -0.00000074  -0.01800001
  Sb15  0.00000076  -0.00000079  -0.01900001
  Sb16  0.00000076  -0.00000079  -0.01900001
