# generated using pymatgen
data_VTe
_symmetry_space_group_name_H-M   'P 1'
_cell_length_a   4.26318700
_cell_length_b   4.26314616
_cell_length_c   5.55598102
_cell_angle_alpha   90.00682111
_cell_angle_beta   90.00296965
_cell_angle_gamma   119.99927063
_symmetry_Int_Tables_number   1
_chemical_formula_structural   VTe
_chemical_formula_sum   'V2 Te2'
_cell_volume   87.44987165
_cell_formula_units_Z   2
loop_
 _symmetry_equiv_pos_site_id
 _symmetry_equiv_pos_as_xyz
  1  'x, y, z'
loop_
 _atom_site_type_symbol
 _atom_site_label
 _atom_site_symmetry_multiplicity
 _atom_site_fract_x
 _atom_site_fract_y
 _atom_site_fract_z
 _atom_site_occupancy
  V  V0  1  0.99999900  0.99999900  0.50000000  1
  V  V1  1  0.00000000  0.00000100  0.00000000  1
  Te  Te2  1  0.33332700  0.66666300  0.24996100  1
  Te  Te3  1  0.66667300  0.33333600  0.75003900  1
loop_
 _atom_site_moment_label
 _atom_site_moment_crystalaxis_x
 _atom_site_moment_crystalaxis_y
 _atom_site_moment_crystalaxis_z
  V0  -0.00015918  -0.00020729  -2.17300002
  V1  0.00015918  0.00020729  2.17300002
