# generated using pymatgen
data_Sr2MnSn2
_symmetry_space_group_name_H-M   'P 1'
_cell_length_a   12.28733231
_cell_length_b   12.28733231
_cell_length_c   55.65531080
_cell_angle_alpha   83.66233019
_cell_angle_beta   83.66233019
_cell_angle_gamma   90.00000000
_symmetry_Int_Tables_number   1
_chemical_formula_structural   Sr2MnSn2
_chemical_formula_sum   'Sr8 Mn4 Sn8'
_cell_volume   8299.73426582
_cell_formula_units_Z   4
loop_
 _symmetry_equiv_pos_site_id
 _symmetry_equiv_pos_as_xyz
  1  'x, y, z'
loop_
 _atom_site_type_symbol
 _atom_site_label
 _atom_site_symmetry_multiplicity
 _atom_site_fract_x
 _atom_site_fract_y
 _atom_site_fract_z
 _atom_site_occupancy
  Sr  Sr0  1  0.58229000  0.08229100  0.83541900  1
  Sr  Sr1  1  0.33229000  0.83229100  0.33541900  1
  Sr  Sr2  1  0.08229000  0.58229100  0.83541900  1
  Sr  Sr3  1  0.83229000  0.33229000  0.33541900  1
  Sr  Sr4  1  0.66770900  0.16771000  0.66458100  1
  Sr  Sr5  1  0.41771000  0.91771000  0.16458100  1
  Sr  Sr6  1  0.16770900  0.66771000  0.66458100  1
  Sr  Sr7  1  0.91770900  0.41770900  0.16458100  1
  Mn  Mn8  1  0.50000000  0.00000000  0.00000000  1
  Mn  Mn9  1  0.25000000  0.75000000  0.50000000  1
  Mn  Mn10  1  0.75000000  0.25000000  0.50000000  1
  Mn  Mn11  1  0.00000000  0.50000000  0.00000000  1
  Sn  Sn12  1  0.69621300  0.19621300  0.60757400  1
  Sn  Sn13  1  0.44621300  0.94621300  0.10757400  1
  Sn  Sn14  1  0.19621300  0.69621300  0.60757400  1
  Sn  Sn15  1  0.94621300  0.44621300  0.10757400  1
  Sn  Sn16  1  0.55378700  0.05378700  0.89242700  1
  Sn  Sn17  1  0.30378700  0.80378700  0.39242700  1
  Sn  Sn18  1  0.05378700  0.55378700  0.89242700  1
  Sn  Sn19  1  0.80378700  0.30378700  0.39242600  1
loop_
 _atom_site_moment_label
 _atom_site_moment_crystalaxis_x
 _atom_site_moment_crystalaxis_y
 _atom_site_moment_crystalaxis_z
  Sr0  -0.00972295  -0.00972295  0.08807991
  Sr1  -0.00972295  -0.00972295  0.08807991
  Sr2  -0.00972295  -0.00972295  0.08807991
  Sr3  -0.00961119  -0.00961119  0.08706750
  Sr4  -0.00961119  -0.00961119  0.08706750
  Sr5  -0.00972295  -0.00972295  0.08807991
  Sr6  -0.00972295  -0.00972295  0.08807991
  Sr7  -0.00972295  -0.00972295  0.08807991
  Mn8  0.52559788  0.52559788  -4.76137745
  Mn9  0.52559788  0.52559788  -4.76137745
  Mn10  -0.52526261  -0.52526261  4.75834022
  Mn11  -0.52492733  -0.52492733  4.75530298
  Sn12  -0.08281268  -0.08281268  0.75019789
  Sn13  -0.08303620  -0.08303620  0.75222272
  Sn14  -0.08292444  -0.08292444  0.75121031
  Sn15  -0.08281268  -0.08281268  0.75019789
  Sn16  -0.08292444  -0.08292444  0.75121031
  Sn17  -0.08292444  -0.08292444  0.75121031
  Sn18  -0.08281268  -0.08281268  0.75019789
  Sn19  -0.08281268  -0.08281268  0.75019789
