# generated using pymatgen
data_BeAsRu2
_symmetry_space_group_name_H-M   'P 1'
_cell_length_a   9.73275894
_cell_length_b   13.55533383
_cell_length_c   9.74637795
_cell_angle_alpha   93.10701244
_cell_angle_beta   88.15247284
_cell_angle_gamma   86.66773638
_symmetry_Int_Tables_number   1
_chemical_formula_structural   BeAsRu2
_chemical_formula_sum   'Be2 As2 Ru4'
_cell_volume   1280.97835570
_cell_formula_units_Z   2
loop_
 _symmetry_equiv_pos_site_id
 _symmetry_equiv_pos_as_xyz
  1  'x, y, z'
loop_
 _atom_site_type_symbol
 _atom_site_label
 _atom_site_symmetry_multiplicity
 _atom_site_fract_x
 _atom_site_fract_y
 _atom_site_fract_z
 _atom_site_occupancy
  Be  Be0  1  0.00003500  0.99996400  0.99996300  1
  Be  Be1  1  0.49997400  0.49997200  0.49999200  1
  As  As2  1  0.74988700  0.25001200  0.25001900  1
  As  As3  1  0.24995200  0.75006000  0.75004900  1
  Ru  Ru4  1  0.37193700  0.62807700  0.62807700  1
  Ru  Ru5  1  0.62818300  0.37197500  0.37191800  1
  Ru  Ru6  1  0.87194200  0.12804300  0.12807900  1
  Ru  Ru7  1  0.12809000  0.87189700  0.87190200  1
loop_
 _atom_site_moment_label
 _atom_site_moment_crystalaxis_x
 _atom_site_moment_crystalaxis_y
 _atom_site_moment_crystalaxis_z
  Be0  0.01754765  0.02425975  0.01747092
  Be1  -0.01955310  -0.02703229  -0.01946760
  As2  -0.00300817  -0.00415881  -0.00299501
  As3  -0.00902451  -0.01247644  -0.00898504
  Ru4  -0.89142063  -1.23239535  -0.88752267
  Ru5  -0.90796556  -1.25526883  -0.90399525
  Ru6  0.91348053  1.26289332  0.90948611
  Ru7  0.91348053  1.26289332  0.90948611
