# generated using pymatgen
data_BaCrS2
_symmetry_space_group_name_H-M   'P 1'
_cell_length_a   4.61796900
_cell_length_b   4.61796700
_cell_length_c   18.29357500
_cell_angle_alpha   90.00009661
_cell_angle_beta   90.00012468
_cell_angle_gamma   89.99995037
_symmetry_Int_Tables_number   1
_chemical_formula_structural   BaCrS2
_chemical_formula_sum   'Ba4 Cr4 S8'
_cell_volume   390.12198345
_cell_formula_units_Z   4
loop_
 _symmetry_equiv_pos_site_id
 _symmetry_equiv_pos_as_xyz
  1  'x, y, z'
loop_
 _atom_site_type_symbol
 _atom_site_label
 _atom_site_symmetry_multiplicity
 _atom_site_fract_x
 _atom_site_fract_y
 _atom_site_fract_z
 _atom_site_occupancy
  Ba  Ba0  1  0.50000100  0.00000000  0.34515200  1
  Ba  Ba1  1  0.50000100  0.00000000  0.84519000  1
  Ba  Ba2  1  0.99999900  0.50000100  0.15481300  1
  Ba  Ba3  1  0.00000000  0.50000000  0.65484800  1
  Cr  Cr4  1  0.00000000  0.50000000  0.95752200  1
  Cr  Cr5  1  0.50000000  0.00000000  0.04247600  1
  Cr  Cr6  1  0.00000000  0.49999900  0.45751000  1
  Cr  Cr7  1  0.49999800  0.00000100  0.54250100  1
  S  S8  1  0.00000000  0.00000000  0.99999800  1
  S  S9  1  0.99999900  0.00000000  0.49999600  1
  S  S10  1  0.50000000  0.50000000  0.99999800  1
  S  S11  1  0.50000100  0.49999900  0.49999600  1
  S  S12  1  0.00000000  0.50000000  0.32670000  1
  S  S13  1  0.00000000  0.50000000  0.82674500  1
  S  S14  1  0.50000000  0.99999900  0.17325700  1
  S  S15  1  0.50000000  0.00000100  0.67329900  1
loop_
 _atom_site_moment_label
 _atom_site_moment_crystalaxis_x
 _atom_site_moment_crystalaxis_y
 _atom_site_moment_crystalaxis_z
  Ba0  0.00000003  0.00000002  0.02600000
  Ba1  -0.00000003  -0.00000002  -0.02600000
  Ba2  -0.00000003  -0.00000002  -0.02600000
  Ba3  0.00000003  0.00000002  0.02600000
  Cr4  -0.00000377  -0.00000283  -3.44600000
  Cr5  -0.00000376  -0.00000282  -3.44200000
  Cr6  0.00000377  0.00000282  3.44400000
  Cr7  0.00000377  0.00000282  3.44500000
  S8  0.00000007  0.00000006  0.06800000
  S9  -0.00000007  -0.00000006  -0.06800000
  S10  0.00000007  0.00000006  0.06800000
  S11  -0.00000007  -0.00000006  -0.06800000
  S12  0.00000001  0.00000000  0.01200000
  S13  -0.00000001  0.00000000  -0.01200000
  S14  -0.00000001  0.00000000  -0.01200000
  S15  0.00000001  0.00000000  0.01200000
