# generated using pymatgen
data_Mg(CrS2)2
_symmetry_space_group_name_H-M   'P 1'
_cell_length_a   7.21454230
_cell_length_b   7.21454214
_cell_length_c   7.21454300
_cell_angle_alpha   60.00000062
_cell_angle_beta   60.00000140
_cell_angle_gamma   60.00000015
_symmetry_Int_Tables_number   1
_chemical_formula_structural   Mg(CrS2)2
_chemical_formula_sum   'Mg2 Cr4 S8'
_cell_volume   265.52865403
_cell_formula_units_Z   2
loop_
 _symmetry_equiv_pos_site_id
 _symmetry_equiv_pos_as_xyz
  1  'x, y, z'
loop_
 _atom_site_type_symbol
 _atom_site_label
 _atom_site_symmetry_multiplicity
 _atom_site_fract_x
 _atom_site_fract_y
 _atom_site_fract_z
 _atom_site_occupancy
  Mg  Mg0  1  0.75000000  0.75000000  0.75000000  1
  Mg  Mg1  1  0.00000000  0.00000000  0.00000000  1
  Cr  Cr2  1  0.37500000  0.87500000  0.37500000  1
  Cr  Cr3  1  0.87500000  0.37500000  0.37500000  1
  Cr  Cr4  1  0.37500000  0.37500000  0.87500000  1
  Cr  Cr5  1  0.37500000  0.37500000  0.37500000  1
  S  S6  1  0.61171900  0.16484200  0.61171900  1
  S  S7  1  0.58515800  0.13828100  0.13828100  1
  S  S8  1  0.13828100  0.13828100  0.13828100  1
  S  S9  1  0.13828100  0.13828100  0.58515800  1
  S  S10  1  0.61171900  0.61171900  0.61171900  1
  S  S11  1  0.61171900  0.61171900  0.16484200  1
  S  S12  1  0.13828100  0.58515800  0.13828100  1
  S  S13  1  0.16484200  0.61171900  0.61171900  1
loop_
 _atom_site_moment_label
 _atom_site_moment_crystalaxis_x
 _atom_site_moment_crystalaxis_y
 _atom_site_moment_crystalaxis_z
  Mg0  0.00000000  0.00000000  0.01200000
  Mg1  0.00000000  0.00000000  0.01200000
  Cr2  0.00000000  0.00000000  2.92500000
  Cr3  0.00000000  0.00000000  2.92600000
  Cr4  0.00000000  0.00000000  2.92400000
  Cr5  0.00000000  0.00000000  2.92500000
  S6  0.00000000  0.00000000  -0.07100000
  S7  0.00000000  0.00000000  -0.07100000
  S8  0.00000000  0.00000000  -0.07100000
  S9  0.00000000  0.00000000  -0.07100000
  S10  0.00000000  0.00000000  -0.07100000
  S11  0.00000000  0.00000000  -0.07100000
  S12  0.00000000  0.00000000  -0.07100000
  S13  0.00000000  0.00000000  -0.07100000
