# generated using pymatgen
data_Cr2Se3
_symmetry_space_group_name_H-M   'P 1'
_cell_length_a   6.89973237
_cell_length_b   7.18751110
_cell_length_c   8.53989798
_cell_angle_alpha   90.20977408
_cell_angle_beta   104.12029225
_cell_angle_gamma   106.14981833
_symmetry_Int_Tables_number   1
_chemical_formula_structural   Cr2Se3
_chemical_formula_sum   'Cr8 Se12'
_cell_volume   393.34156308
_cell_formula_units_Z   4
loop_
 _symmetry_equiv_pos_site_id
 _symmetry_equiv_pos_as_xyz
  1  'x, y, z'
loop_
 _atom_site_type_symbol
 _atom_site_label
 _atom_site_symmetry_multiplicity
 _atom_site_fract_x
 _atom_site_fract_y
 _atom_site_fract_z
 _atom_site_occupancy
  Cr  Cr0  1  0.17678600  0.67002800  0.66296700  1
  Cr  Cr1  1  0.48687700  0.25887100  0.49435300  1
  Cr  Cr2  1  0.16683600  0.39912300  0.15461800  1
  Cr  Cr3  1  0.82494800  0.60865400  0.84603000  1
  Cr  Cr4  1  0.83191700  0.32903400  0.33300300  1
  Cr  Cr5  1  0.51657500  0.73176400  0.50674600  1
  Cr  Cr6  1  0.84589900  0.07613700  0.84354400  1
  Cr  Cr7  1  0.15416400  0.92796500  0.15596800  1
  Se  Se8  1  0.54370100  0.01203400  0.31186700  1
  Se  Se9  1  0.45994000  0.98224200  0.68877900  1
  Se  Se10  1  0.87904100  0.35089900  0.64354900  1
  Se  Se11  1  0.11968800  0.65308200  0.35631500  1
  Se  Se12  1  0.21168900  0.68084400  0.97047800  1
  Se  Se13  1  0.78315300  0.32226200  0.02640600  1
  Se  Se14  1  0.43969100  0.47959900  0.70380100  1
  Se  Se15  1  0.55691900  0.51042700  0.29688600  1
  Se  Se16  1  0.77332400  0.83054000  0.03733600  1
  Se  Se17  1  0.22444100  0.17506400  0.96556600  1
  Se  Se18  1  0.10698200  0.15095400  0.36049100  1
  Se  Se19  1  0.89742900  0.85047900  0.64129400  1
loop_
 _atom_site_moment_label
 _atom_site_moment_crystalaxis_x
 _atom_site_moment_crystalaxis_y
 _atom_site_moment_crystalaxis_z
  Cr0  -0.00309879  -0.02737027  -2.79772911
  Cr1  -0.00299575  -0.02646021  -2.70470487
  Cr2  -0.00298689  -0.02638193  -2.69670279
  Cr3  -0.00302788  -0.02674400  -2.73371243
  Cr4  0.00311762  0.02753663  2.81473355
  Cr5  0.00298689  0.02638193  2.69670279
  Cr6  0.00302456  0.02671464  2.73071165
  Cr7  0.00302234  0.02669507  2.72871113
  Se8  -0.00004099  -0.00036207  -0.03700965
  Se9  -0.00000332  -0.00002936  -0.00300078
  Se10  0.00001219  0.00010764  0.01100287
  Se11  -0.00002659  -0.00023485  -0.02400626
  Se12  0.00006647  0.00058713  0.06001564
  Se13  0.00000776  0.00006850  0.00700182
  Se14  0.00002991  0.00026421  0.02700704
  Se15  0.00000554  0.00004893  0.00500130
  Se16  -0.00004099  -0.00036207  -0.03700965
  Se17  -0.00004099  -0.00036207  -0.03700965
  Se18  0.00001219  0.00010764  0.01100287
  Se19  -0.00001108  -0.00009786  -0.01000261
