# generated using pymatgen
data_Li2VPb2
_symmetry_space_group_name_H-M   'P 1'
_cell_length_a   6.59681600
_cell_length_b   7.89315500
_cell_length_c   7.89331100
_cell_angle_alpha   90.00034842
_cell_angle_beta   90.00032031
_cell_angle_gamma   90.00096249
_symmetry_Int_Tables_number   1
_chemical_formula_structural   Li2VPb2
_chemical_formula_sum   'Li8 V4 Pb8'
_cell_volume   411.00226624
_cell_formula_units_Z   4
loop_
 _symmetry_equiv_pos_site_id
 _symmetry_equiv_pos_as_xyz
  1  'x, y, z'
loop_
 _atom_site_type_symbol
 _atom_site_label
 _atom_site_symmetry_multiplicity
 _atom_site_fract_x
 _atom_site_fract_y
 _atom_site_fract_z
 _atom_site_occupancy
  Li  Li0  1  0.99999000  0.61785600  0.11765300  1
  Li  Li1  1  0.50000000  0.61737000  0.11806200  1
  Li  Li2  1  0.00000700  0.38214700  0.88234000  1
  Li  Li3  1  0.50000000  0.38262100  0.88194200  1
  Li  Li4  1  0.00000200  0.88233900  0.61784000  1
  Li  Li5  1  0.50000300  0.88193400  0.61738200  1
  Li  Li6  1  0.00000000  0.11766300  0.38216200  1
  Li  Li7  1  0.49999600  0.11806300  0.38262000  1
  V  V8  1  0.50000000  0.00000300  0.00000000  1
  V  V9  1  0.50000200  0.49999900  0.50000000  1
  V  V10  1  0.00000000  0.00000300  0.00000000  1
  V  V11  1  0.99999900  0.50000100  0.49999600  1
  Pb  Pb12  1  0.25005700  0.17992800  0.67946400  1
  Pb  Pb13  1  0.74994400  0.17992800  0.67946700  1
  Pb  Pb14  1  0.25005500  0.82007000  0.32053400  1
  Pb  Pb15  1  0.74994200  0.82007400  0.32053400  1
  Pb  Pb16  1  0.25005200  0.32053100  0.17992500  1
  Pb  Pb17  1  0.74994800  0.32052700  0.17992300  1
  Pb  Pb18  1  0.25005400  0.67947400  0.82008000  1
  Pb  Pb19  1  0.74994800  0.67946800  0.82007500  1
loop_
 _atom_site_moment_label
 _atom_site_moment_crystalaxis_x
 _atom_site_moment_crystalaxis_y
 _atom_site_moment_crystalaxis_z
  Li0  0.00000000  0.00000000  0.00100000
  Li1  0.00000000  0.00000000  -0.00100000
  Li2  0.00000000  0.00000000  0.00100000
  Li3  0.00000000  0.00000000  -0.00100000
  Li4  0.00000000  0.00000000  0.00100000
  Li5  0.00000000  0.00000000  -0.00100000
  Li6  0.00000000  0.00000000  0.00100000
  Li7  0.00000000  0.00000000  -0.00100000
  V8  -0.00000648  -0.00000819  -2.69300000
  V9  -0.00000655  -0.00000827  -2.72100000
  V10  0.00000653  0.00000825  2.71300000
  V11  0.00000654  0.00000827  2.71900000
