# generated using pymatgen
data_Fe7Ge4
_symmetry_space_group_name_H-M   'P 1'
_cell_length_a   4.05309300
_cell_length_b   4.05305783
_cell_length_c   19.84930000
_cell_angle_alpha   89.99999923
_cell_angle_beta   90.00002568
_cell_angle_gamma   119.99970449
_symmetry_Int_Tables_number   1
_chemical_formula_structural   Fe7Ge4
_chemical_formula_sum   'Fe14 Ge8'
_cell_volume   282.38816442
_cell_formula_units_Z   2
loop_
 _symmetry_equiv_pos_site_id
 _symmetry_equiv_pos_as_xyz
  1  'x, y, z'
loop_
 _atom_site_type_symbol
 _atom_site_label
 _atom_site_symmetry_multiplicity
 _atom_site_fract_x
 _atom_site_fract_y
 _atom_site_fract_z
 _atom_site_occupancy
  Fe  Fe0  1  0.99999900  0.00000100  0.43818900  1
  Fe  Fe1  1  0.00000200  0.00000000  0.93821000  1
  Fe  Fe2  1  0.99999900  0.99999800  0.06179700  1
  Fe  Fe3  1  0.00000000  0.00000200  0.56179800  1
  Fe  Fe4  1  0.99999700  0.99999600  0.18807800  1
  Fe  Fe5  1  0.99999900  0.99999900  0.68807700  1
  Fe  Fe6  1  0.99999800  0.99999900  0.31193700  1
  Fe  Fe7  1  0.99999900  0.00000200  0.81191400  1
  Fe  Fe8  1  0.33333400  0.66666800  0.38013500  1
  Fe  Fe9  1  0.33333600  0.66666600  0.88014100  1
  Fe  Fe10  1  0.33333700  0.66667000  0.11986500  1
  Fe  Fe11  1  0.33333800  0.66667000  0.61985900  1
  Fe  Fe12  1  0.66665900  0.33333000  0.74999300  1
  Fe  Fe13  1  0.66666500  0.33333500  0.25000600  1
  Ge  Ge14  1  0.33333300  0.66666600  0.00000300  1
  Ge  Ge15  1  0.33333300  0.66666700  0.49999100  1
  Ge  Ge16  1  0.33333200  0.66666600  0.25002700  1
  Ge  Ge17  1  0.33333200  0.66666600  0.74998000  1
  Ge  Ge18  1  0.66666800  0.33333300  0.37641800  1
  Ge  Ge19  1  0.66666900  0.33333300  0.87642300  1
  Ge  Ge20  1  0.66666800  0.33333400  0.12356600  1
  Ge  Ge21  1  0.66666900  0.33333400  0.62359300  1
loop_
 _atom_site_moment_label
 _atom_site_moment_crystalaxis_x
 _atom_site_moment_crystalaxis_y
 _atom_site_moment_crystalaxis_z
  Fe0  0.00000062  0.00000028  2.36900000
  Fe1  0.00000062  0.00000028  2.38500000
  Fe2  0.00000062  0.00000028  2.37700000
  Fe3  0.00000062  0.00000028  2.38200000
  Fe4  0.00000057  0.00000026  2.21400000
  Fe5  0.00000058  0.00000026  2.21500000
  Fe6  0.00000057  0.00000026  2.21200000
  Fe7  0.00000058  0.00000026  2.21600000
  Fe8  0.00000036  0.00000016  1.38500000
  Fe9  0.00000036  0.00000016  1.37700000
  Fe10  0.00000036  0.00000016  1.37900000
  Fe11  0.00000036  0.00000016  1.38500000
  Fe12  0.00000035  0.00000016  1.33300000
  Fe13  0.00000034  0.00000015  1.32100000
  Ge14  -0.00000003  -0.00000002  -0.13300000
  Ge15  -0.00000003  -0.00000002  -0.13200000
  Ge16  -0.00000002  0.00000000  -0.07500000
  Ge17  -0.00000002  0.00000000  -0.07500000
  Ge18  -0.00000003  -0.00000001  -0.09900000
  Ge19  -0.00000003  -0.00000001  -0.10000000
  Ge20  -0.00000003  -0.00000001  -0.09900000
  Ge21  -0.00000003  -0.00000001  -0.09900000
