# generated using pymatgen
data_RbV5S8
_symmetry_space_group_name_H-M   'P 1'
_cell_length_a   3.30560734
_cell_length_b   8.62562641
_cell_length_c   17.64031211
_cell_angle_alpha   76.19563003
_cell_angle_beta   90.00035643
_cell_angle_gamma   90.00025128
_symmetry_Int_Tables_number   1
_chemical_formula_structural   RbV5S8
_chemical_formula_sum   'Rb2 V10 S16'
_cell_volume   488.44910757
_cell_formula_units_Z   2
loop_
 _symmetry_equiv_pos_site_id
 _symmetry_equiv_pos_as_xyz
  1  'x, y, z'
loop_
 _atom_site_type_symbol
 _atom_site_label
 _atom_site_symmetry_multiplicity
 _atom_site_fract_x
 _atom_site_fract_y
 _atom_site_fract_z
 _atom_site_occupancy
  Rb  Rb0  1  0.50000100  0.00000900  0.00000300  1
  Rb  Rb1  1  0.00000000  0.50002600  0.49998900  1
  V  V2  1  0.49999800  0.99985800  0.50013800  1
  V  V3  1  0.50000800  0.35461500  0.79113700  1
  V  V4  1  0.49999900  0.64534300  0.20886200  1
  V  V5  1  0.49999900  0.65231300  0.85055500  1
  V  V6  1  0.50000500  0.34766600  0.14938700  1
  V  V7  1  0.00001000  0.50000500  0.99997800  1
  V  V8  1  0.99999300  0.85476100  0.29124300  1
  V  V9  1  0.99999700  0.14529600  0.70877600  1
  V  V10  1  0.00000200  0.15228900  0.35064600  1
  V  V11  1  0.99999800  0.84782500  0.64932300  1
  S  S12  1  0.00000100  0.83753600  0.16251100  1
  S  S13  1  0.49999700  0.33749000  0.66252200  1
  S  S14  1  0.49999900  0.66248000  0.33750700  1
  S  S15  1  0.00000700  0.16254100  0.83746500  1
  S  S16  1  0.99999900  0.41896300  0.24012400  1
  S  S17  1  0.50000000  0.91892600  0.74016500  1
  S  S18  1  0.49999800  0.08101900  0.25981200  1
  S  S19  1  0.00000000  0.58110300  0.75986000  1
  S  S20  1  0.00000400  0.23657100  0.08679000  1
  S  S21  1  0.50000100  0.73662300  0.58675800  1
  S  S22  1  0.49999900  0.26334300  0.41327200  1
  S  S23  1  0.99999500  0.76340900  0.91318600  1
  S  S24  1  0.99999200  0.89828500  0.42626400  1
  S  S25  1  0.50000100  0.39820700  0.92616400  1
  S  S26  1  0.50000100  0.60175400  0.07380000  1
  S  S27  1  0.99999600  0.10174200  0.57376400  1
loop_
 _atom_site_moment_label
 _atom_site_moment_crystalaxis_x
 _atom_site_moment_crystalaxis_y
 _atom_site_moment_crystalaxis_z
  Rb0  -0.00018190  -0.00047676  0.00098126
  Rb1  0.00018190  0.00047676  -0.00098126
  V2  0.14551680  0.38140648  -0.78500588
  V3  0.19626578  0.51442199  -1.05877668
  V4  0.19353734  0.50727062  -1.04405782
  V5  0.17825807  0.46722294  -0.96163220
  V6  0.17771239  0.46579266  -0.95868843
  V7  -0.14551680  -0.38140648  0.78500588
  V8  -0.19408303  -0.50870089  1.04700159
  V9  -0.19626578  -0.51442199  1.05877668
  V10  -0.17843997  -0.46769970  0.96261346
  V11  -0.17552963  -0.46007157  0.94691334
  S12  -0.00309223  -0.00810489  0.01668137
  S13  0.00327413  0.00858165  -0.01766263
  S14  0.00327413  0.00858165  -0.01766263
  S15  -0.00327413  -0.00858165  0.01766263
  S16  -0.00400171  -0.01048868  0.02158766
  S17  0.00418361  0.01096544  -0.02256892
  S18  0.00400171  0.01048868  -0.02158766
  S19  -0.00436550  -0.01144219  0.02355018
  S20  -0.00763963  -0.02002384  0.04121281
  S21  0.00745774  0.01954708  -0.04023155
  S22  0.00763963  0.02002384  -0.04121281
  S23  -0.00763963  -0.02002384  0.04121281
  S24  0.00381982  0.01001192  -0.02060640
  S25  -0.00381982  -0.01001192  0.02060640
  S26  -0.00363792  -0.00953516  0.01962515
  S27  0.00363792  0.00953516  -0.01962515
