# generated using pymatgen
data_RbFe2Te3
_symmetry_space_group_name_H-M   'P 1'
_cell_length_a   5.83076706
_cell_length_b   8.20546150
_cell_length_c   8.20556286
_cell_angle_alpha   100.01752093
_cell_angle_beta   89.98757802
_cell_angle_gamma   90.01257800
_symmetry_Int_Tables_number   1
_chemical_formula_structural   RbFe2Te3
_chemical_formula_sum   'Rb2 Fe4 Te6'
_cell_volume   386.60287923
_cell_formula_units_Z   2
loop_
 _symmetry_equiv_pos_site_id
 _symmetry_equiv_pos_as_xyz
  1  'x, y, z'
loop_
 _atom_site_type_symbol
 _atom_site_label
 _atom_site_symmetry_multiplicity
 _atom_site_fract_x
 _atom_site_fract_y
 _atom_site_fract_z
 _atom_site_occupancy
  Rb  Rb0  1  0.25000100  0.65290400  0.34703200  1
  Rb  Rb1  1  0.75000100  0.34703600  0.65290000  1
  Fe  Fe2  1  0.00000200  0.86903800  0.86903800  1
  Fe  Fe3  1  0.99999100  0.13113300  0.13113700  1
  Fe  Fe4  1  0.50001000  0.13104000  0.13104400  1
  Fe  Fe5  1  0.50000000  0.86899200  0.86899200  1
  Te  Te6  1  0.74993400  0.87103600  0.12876500  1
  Te  Te7  1  0.25005400  0.12876300  0.87104900  1
  Te  Te8  1  0.74992600  0.38503500  0.14691900  1
  Te  Te9  1  0.25016900  0.61504800  0.85305000  1
  Te  Te10  1  0.25007600  0.14692300  0.38503800  1
  Te  Te11  1  0.74983500  0.85305200  0.61503400  1
loop_
 _atom_site_moment_label
 _atom_site_moment_crystalaxis_x
 _atom_site_moment_crystalaxis_y
 _atom_site_moment_crystalaxis_z
  Fe2  0.00029983  0.12213167  -2.68808720
  Fe3  0.00029994  0.12217670  -2.68907838
  Fe4  -0.00029961  -0.12204160  2.68610484
  Fe5  -0.00029961  -0.12204160  2.68610484
