# generated using pymatgen
data_LiFeAs
_symmetry_space_group_name_H-M   'P 1'
_cell_length_a   3.16467287
_cell_length_b   4.51960103
_cell_length_c   6.08732138
_cell_angle_alpha   109.61481596
_cell_angle_beta   89.99755597
_cell_angle_gamma   69.52663240
_symmetry_Int_Tables_number   1
_chemical_formula_structural   LiFeAs
_chemical_formula_sum   'Li2 Fe2 As2'
_cell_volume   76.15072435
_cell_formula_units_Z   2
loop_
 _symmetry_equiv_pos_site_id
 _symmetry_equiv_pos_as_xyz
  1  'x, y, z'
loop_
 _atom_site_type_symbol
 _atom_site_label
 _atom_site_symmetry_multiplicity
 _atom_site_fract_x
 _atom_site_fract_y
 _atom_site_fract_z
 _atom_site_occupancy
  Li  Li0  1  0.46450100  0.07079900  0.26746700  1
  Li  Li1  1  0.46452900  0.07072900  0.76734300  1
  Fe  Fe2  1  0.78594300  0.42820800  0.60752500  1
  Fe  Fe3  1  0.78595400  0.42818300  0.10752300  1
  As  As4  1  0.14384500  0.71242300  0.42790600  1
  As  As5  1  0.14382900  0.71245400  0.92793600  1
loop_
 _atom_site_moment_label
 _atom_site_moment_crystalaxis_x
 _atom_site_moment_crystalaxis_y
 _atom_site_moment_crystalaxis_z
  Li0  0.00342852  -0.00504272  -0.00335935
  Li1  -0.00342852  0.00504272  0.00335935
  Fe2  1.08683926  -1.59854182  -1.06491285
  Fe3  -1.08683926  1.59854182  1.06491285
  As4  0.00068570  -0.00100854  -0.00067187
  As5  -0.00068570  0.00100854  0.00067187
