# generated using pymatgen
data_K(CrS2)2
_symmetry_space_group_name_H-M   'P 1'
_cell_length_a   7.25722923
_cell_length_b   7.27616281
_cell_length_c   7.25192449
_cell_angle_alpha   104.76385550
_cell_angle_beta   111.80895104
_cell_angle_gamma   111.82503046
_symmetry_Int_Tables_number   1
_chemical_formula_structural   K(CrS2)2
_chemical_formula_sum   'K2 Cr4 S8'
_cell_volume   293.74640041
_cell_formula_units_Z   2
loop_
 _symmetry_equiv_pos_site_id
 _symmetry_equiv_pos_as_xyz
  1  'x, y, z'
loop_
 _atom_site_type_symbol
 _atom_site_label
 _atom_site_symmetry_multiplicity
 _atom_site_fract_x
 _atom_site_fract_y
 _atom_site_fract_z
 _atom_site_occupancy
  K  K0  1  0.99962600  0.00003300  0.00076400  1
  K  K1  1  0.50037400  0.75022300  0.24979000  1
  Cr  Cr2  1  0.24870100  0.37322500  0.62478300  1
  Cr  Cr3  1  0.74894300  0.37482000  0.62347300  1
  Cr  Cr4  1  0.75137400  0.37625800  0.12445400  1
  Cr  Cr5  1  0.25102800  0.87459600  0.62590400  1
  S  S6  1  0.17261600  0.63395600  0.80939300  1
  S  S7  1  0.82474700  0.19038200  0.36365500  1
  S  S8  1  0.82610800  0.63557900  0.46104200  1
  S  S9  1  0.17481700  0.53857100  0.36523400  1
  S  S10  1  0.32621400  0.11465000  0.44131000  1
  S  S11  1  0.32634200  0.21125600  0.88664500  1
  S  S12  1  0.67530300  0.11629400  0.78883300  1
  S  S13  1  0.67380600  0.56015700  0.88471900  1
loop_
 _atom_site_moment_label
 _atom_site_moment_crystalaxis_x
 _atom_site_moment_crystalaxis_y
 _atom_site_moment_crystalaxis_z
  K0  0.00000505  0.00004199  -0.01798738
  K1  0.00000505  0.00004199  -0.01798738
  Cr2  -0.00081117  -0.00675166  2.89197149
  Cr3  -0.00080697  -0.00671666  2.87698201
  Cr4  -0.00081005  -0.00674232  2.88797430
  Cr5  -0.00081566  -0.00678898  2.90796028
  S6  0.00006054  0.00050392  -0.21584860
  S7  0.00006054  0.00050392  -0.21584860
  S8  0.00006054  0.00050392  -0.21584860
  S9  0.00006138  0.00051092  -0.21884650
  S10  0.00006166  0.00051326  -0.21984579
  S11  0.00006026  0.00050159  -0.21484930
  S12  0.00006166  0.00051326  -0.21984579
  S13  0.00005942  0.00049459  -0.21185140
