# generated using pymatgen
data_KFeAs2
_symmetry_space_group_name_H-M   'P 1'
_cell_length_a   5.56554753
_cell_length_b   11.02723091
_cell_length_c   7.04645647
_cell_angle_alpha   89.99953332
_cell_angle_beta   66.82375077
_cell_angle_gamma   89.99993128
_symmetry_Int_Tables_number   1
_chemical_formula_structural   KFeAs2
_chemical_formula_sum   'K4 Fe4 As8'
_cell_volume   397.55911743
_cell_formula_units_Z   4
loop_
 _symmetry_equiv_pos_site_id
 _symmetry_equiv_pos_as_xyz
  1  'x, y, z'
loop_
 _atom_site_type_symbol
 _atom_site_label
 _atom_site_symmetry_multiplicity
 _atom_site_fract_x
 _atom_site_fract_y
 _atom_site_fract_z
 _atom_site_occupancy
  K  K0  1  0.50000100  0.74996700  0.99999900  1
  K  K1  1  0.99999900  0.49997400  0.00000000  1
  K  K2  1  0.50000200  0.25004200  0.00000000  1
  K  K3  1  0.00000400  0.00011500  0.99999900  1
  Fe  Fe4  1  0.00000000  0.62510200  0.50000000  1
  Fe  Fe5  1  0.50000000  0.37471100  0.49999900  1
  Fe  Fe6  1  0.00000000  0.12511800  0.50000000  1
  Fe  Fe7  1  0.49999900  0.87483700  0.50000000  1
  As  As8  1  0.33483300  0.49970300  0.33013700  1
  As  As9  1  0.83559000  0.25027500  0.32945400  1
  As  As10  1  0.33478600  0.99999300  0.32968200  1
  As  As11  1  0.83574900  0.75009600  0.32881100  1
  As  As12  1  0.16424800  0.75009600  0.67119000  1
  As  As13  1  0.66516600  0.49970100  0.66986500  1
  As  As14  1  0.16440900  0.25027600  0.67054600  1
  As  As15  1  0.66521400  0.99999300  0.67031700  1
loop_
 _atom_site_moment_label
 _atom_site_moment_crystalaxis_x
 _atom_site_moment_crystalaxis_y
 _atom_site_moment_crystalaxis_z
  Fe4  0.59025048  -0.60388909  -1.49716332
  Fe5  -0.56747301  0.58058532  1.43938856
  Fe6  0.58750147  -0.60107657  -1.49019051
  Fe7  -0.60517364  0.61915708  1.53501576
  As8  -0.00157086  0.00160716  0.00398447
  As9  -0.00039271  0.00040179  0.00099612
  As10  0.00117814  -0.00120537  -0.00298835
  As13  -0.00157086  0.00160716  0.00398447
  As14  -0.00039271  0.00040179  0.00099612
  As15  0.00117814  -0.00120537  -0.00298835
