# generated using pymatgen
data_RbCrSe2
_symmetry_space_group_name_H-M   'P 1'
_cell_length_a   3.88168278
_cell_length_b   3.88167879
_cell_length_c   8.06984049
_cell_angle_alpha   76.08861257
_cell_angle_beta   76.08856528
_cell_angle_gamma   59.99428928
_symmetry_Int_Tables_number   1
_chemical_formula_structural   RbCrSe2
_chemical_formula_sum   'Rb1 Cr1 Se2'
_cell_volume   101.15693655
_cell_formula_units_Z   1
loop_
 _symmetry_equiv_pos_site_id
 _symmetry_equiv_pos_as_xyz
  1  'x, y, z'
loop_
 _atom_site_type_symbol
 _atom_site_label
 _atom_site_symmetry_multiplicity
 _atom_site_fract_x
 _atom_site_fract_y
 _atom_site_fract_z
 _atom_site_occupancy
  Rb  Rb0  1  0.83422100  0.83422000  0.49741000  1
  Cr  Cr1  1  0.00211000  0.00211000  0.99371000  1
  Se  Se2  1  0.61221800  0.61221900  0.16330800  1
  Se  Se3  1  0.39145300  0.39145200  0.82556900  1
loop_
 _atom_site_moment_label
 _atom_site_moment_crystalaxis_x
 _atom_site_moment_crystalaxis_y
 _atom_site_moment_crystalaxis_z
  Rb0  0.00000042  0.00000042  -0.00200020
  Cr1  -0.00063571  -0.00063247  3.04030471
  Se2  0.00002196  0.00002185  -0.10501052
  Se3  0.00002112  0.00002101  -0.10101012
