# generated using pymatgen
data_Li2FeS2
_symmetry_space_group_name_H-M   'P 1'
_cell_length_a   5.29705162
_cell_length_b   6.48961124
_cell_length_c   10.70700489
_cell_angle_alpha   85.11553418
_cell_angle_beta   75.68172873
_cell_angle_gamma   65.92059601
_symmetry_Int_Tables_number   1
_chemical_formula_structural   Li2FeS2
_chemical_formula_sum   'Li8 Fe4 S8'
_cell_volume   325.54362047
_cell_formula_units_Z   4
loop_
 _symmetry_equiv_pos_site_id
 _symmetry_equiv_pos_as_xyz
  1  'x, y, z'
loop_
 _atom_site_type_symbol
 _atom_site_label
 _atom_site_symmetry_multiplicity
 _atom_site_fract_x
 _atom_site_fract_y
 _atom_site_fract_z
 _atom_site_occupancy
  Li  Li0  1  0.35968900  0.38594300  0.89438000  1
  Li  Li1  1  0.35981900  0.88577100  0.39438000  1
  Li  Li2  1  0.86036900  0.53380900  0.74548700  1
  Li  Li3  1  0.86042000  0.03377300  0.24554800  1
  Li  Li4  1  0.13964600  0.46619200  0.25451200  1
  Li  Li5  1  0.13971000  0.96622400  0.75445000  1
  Li  Li6  1  0.64020500  0.61405700  0.10562100  1
  Li  Li7  1  0.64016000  0.11423100  0.60562000  1
  Fe  Fe8  1  0.74940400  0.50003600  0.50001100  1
  Fe  Fe9  1  0.25057700  0.49996700  0.49998900  1
  Fe  Fe10  1  0.74908500  0.00002900  0.00001500  1
  Fe  Fe11  1  0.25092600  0.99997100  0.99998700  1
  S  S12  1  0.87999200  0.29971400  0.94049600  1
  S  S13  1  0.87997200  0.79959800  0.44059500  1
  S  S14  1  0.62075000  0.43798500  0.32051800  1
  S  S15  1  0.62081500  0.93795000  0.82037000  1
  S  S16  1  0.37923400  0.56201200  0.67948200  1
  S  S17  1  0.37912200  0.06205100  0.17963100  1
  S  S18  1  0.12008200  0.70028600  0.05950400  1
  S  S19  1  0.12002400  0.20040200  0.55940500  1
loop_
 _atom_site_moment_label
 _atom_site_moment_crystalaxis_x
 _atom_site_moment_crystalaxis_y
 _atom_site_moment_crystalaxis_z
  Li2  -0.00405378  0.00252382  0.00412921
  Li3  0.00405378  -0.00252382  -0.00412921
  Li4  -0.00405378  0.00252382  0.00412921
  Li5  0.00405378  -0.00252382  -0.00412921
  Fe8  2.53766419  -1.57991381  -2.58488723
  Fe9  2.52144908  -1.56981852  -2.56837038
  Fe10  -2.52955663  1.57486617  2.57662880
  Fe11  -2.53361041  1.57738999  2.58075802
  S12  -0.13134236  0.08177190  0.13378650
  S13  0.13134236  -0.08177190  -0.13378650
  S14  0.12728859  -0.07924807  -0.12965728
  S15  -0.12728859  0.07924807  0.12965728
  S16  0.12728859  -0.07924807  -0.12965728
  S17  -0.12728859  0.07924807  0.12965728
  S18  -0.13134236  0.08177190  0.13378650
  S19  0.13134236  -0.08177190  -0.13378650
