# generated using pymatgen
data_Be4AlFe
_symmetry_space_group_name_H-M   'P 1'
_cell_length_a   4.25105797
_cell_length_b   4.25107917
_cell_length_c   12.01941162
_cell_angle_alpha   90.00001795
_cell_angle_beta   89.99994314
_cell_angle_gamma   89.99975316
_symmetry_Int_Tables_number   1
_chemical_formula_structural   Be4AlFe
_chemical_formula_sum   'Be16 Al4 Fe4'
_cell_volume   217.20980657
_cell_formula_units_Z   4
loop_
 _symmetry_equiv_pos_site_id
 _symmetry_equiv_pos_as_xyz
  1  'x, y, z'
loop_
 _atom_site_type_symbol
 _atom_site_label
 _atom_site_symmetry_multiplicity
 _atom_site_fract_x
 _atom_site_fract_y
 _atom_site_fract_z
 _atom_site_occupancy
  Be  Be0  1  0.99999800  0.25379600  0.81317300  1
  Be  Be1  1  0.49999800  0.75348400  0.06333600  1
  Be  Be2  1  0.99999600  0.25354100  0.31341200  1
  Be  Be3  1  0.50000000  0.75353500  0.56340800  1
  Be  Be4  1  0.74628500  0.00000100  0.68672000  1
  Be  Be5  1  0.24658800  0.50000300  0.93652100  1
  Be  Be6  1  0.74643900  0.00000100  0.18664700  1
  Be  Be7  1  0.24633000  0.50000100  0.43678800  1
  Be  Be8  1  0.00000100  0.74620400  0.81317300  1
  Be  Be9  1  0.50000200  0.24651700  0.06333600  1
  Be  Be10  1  0.00000200  0.74645900  0.31341200  1
  Be  Be11  1  0.50000100  0.24646600  0.56340800  1
  Be  Be12  1  0.25371500  0.00000000  0.68672000  1
  Be  Be13  1  0.75341300  0.49999700  0.93652100  1
  Be  Be14  1  0.25356200  0.99999900  0.18664700  1
  Be  Be15  1  0.75366900  0.50000000  0.43678800  1
  Al  Al16  1  0.00000000  0.50000000  0.62520600  1
  Al  Al17  1  0.50000000  0.00000000  0.87465600  1
  Al  Al18  1  0.00000000  0.50000000  0.12506900  1
  Al  Al19  1  0.49999900  0.00000000  0.37506600  1
  Fe  Fe20  1  0.99999700  0.00000000  0.49981000  1
  Fe  Fe21  1  0.50000100  0.49999800  0.75012800  1
  Fe  Fe22  1  0.00000200  0.99999800  0.00022500  1
  Fe  Fe23  1  0.50000100  0.49999900  0.24982500  1
loop_
 _atom_site_moment_label
 _atom_site_moment_crystalaxis_x
 _atom_site_moment_crystalaxis_y
 _atom_site_moment_crystalaxis_z
  Be0  0.00050000  0.00050000  0.00070711
  Be1  0.00100000  0.00100000  0.00141421
  Be2  0.00100000  0.00100000  0.00141421
  Be3  0.00100000  0.00100000  0.00141421
  Be4  0.00100000  0.00100000  0.00141421
  Be5  0.00100000  0.00100000  0.00141421
  Be6  0.00100000  0.00100000  0.00141421
  Be7  0.00100000  0.00100000  0.00141421
  Be8  0.00050000  0.00050000  0.00070711
  Be9  0.00100000  0.00100000  0.00141421
  Be10  0.00100000  0.00100000  0.00141421
  Be11  0.00100000  0.00100000  0.00141421
  Be12  0.00100000  0.00100000  0.00141421
  Be13  0.00100000  0.00100000  0.00141421
  Be14  0.00100000  0.00100000  0.00141421
  Be15  0.00100000  0.00100000  0.00141421
  Al16  -0.00299999  -0.00299999  -0.00424264
  Al17  -0.00299999  -0.00299999  -0.00424264
  Al18  -0.00349999  -0.00349999  -0.00494975
  Al19  -0.00299999  -0.00299999  -0.00424264
  Fe20  0.39599886  0.39599929  0.56002840
  Fe21  0.37799891  0.37799932  0.53457257
  Fe22  0.40899882  0.40899927  0.57841317
  Fe23  0.40399884  0.40399928  0.57134211
