# generated using pymatgen
data_LiFeAs
_symmetry_space_group_name_H-M   'P 1'
_cell_length_a   4.60451916
_cell_length_b   8.34845665
_cell_length_c   6.21849481
_cell_angle_alpha   62.61369926
_cell_angle_beta   49.38324436
_cell_angle_gamma   66.92989475
_symmetry_Int_Tables_number   1
_chemical_formula_structural   LiFeAs
_chemical_formula_sum   'Li4 Fe4 As4'
_cell_volume   159.59520599
_cell_formula_units_Z   4
loop_
 _symmetry_equiv_pos_site_id
 _symmetry_equiv_pos_as_xyz
  1  'x, y, z'
loop_
 _atom_site_type_symbol
 _atom_site_label
 _atom_site_symmetry_multiplicity
 _atom_site_fract_x
 _atom_site_fract_y
 _atom_site_fract_z
 _atom_site_occupancy
  Li  Li0  1  0.58391800  0.72530100  0.02083300  1
  Li  Li1  1  0.08431200  0.22558800  0.52039500  1
  Li  Li2  1  0.41581000  0.27421100  0.97964200  1
  Li  Li3  1  0.91591700  0.77490000  0.47926300  1
  Fe  Fe4  1  0.38519400  0.61489700  0.65651300  1
  Fe  Fe5  1  0.11495900  0.88488200  0.84341000  1
  Fe  Fe6  1  0.88480800  0.11511800  0.15624300  1
  Fe  Fe7  1  0.61505100  0.38501800  0.34369000  1
  As  As8  1  0.94448300  0.43178200  0.80788200  1
  As  As9  1  0.44457000  0.93172600  0.30795100  1
  As  As10  1  0.05550700  0.56815200  0.19225200  1
  As  As11  1  0.55547300  0.06842400  0.69192400  1
loop_
 _atom_site_moment_label
 _atom_site_moment_crystalaxis_x
 _atom_site_moment_crystalaxis_y
 _atom_site_moment_crystalaxis_z
  Li0  -0.00680328  0.00582067  0.00909570
  Li1  0.00680328  -0.00582067  -0.00909570
  Li2  0.00680328  -0.00582067  -0.00909570
  Li3  -0.00680328  0.00582067  0.00909570
  Fe4  1.40623752  -1.20313166  -1.88008194
  Fe5  1.40895883  -1.20545993  -1.88372022
  Fe6  -1.40487686  1.20196753  1.87826280
  Fe7  -1.40283588  1.20022133  1.87553409
  As8  0.01156557  -0.00989513  -0.01546270
  As9  -0.01156557  0.00989513  0.01546270
  As10  -0.01156557  0.00989513  0.01546270
  As11  0.01156557  -0.00989513  -0.01546270
