# generated using pymatgen
data_Li2FeS2
_symmetry_space_group_name_H-M   'P 1'
_cell_length_a   5.80412341
_cell_length_b   11.51986913
_cell_length_c   5.80250783
_cell_angle_alpha   79.82030886
_cell_angle_beta   72.65419746
_cell_angle_gamma   100.18502469
_symmetry_Int_Tables_number   1
_chemical_formula_structural   Li2FeS2
_chemical_formula_sum   'Li8 Fe4 S8'
_cell_volume   353.45372049
_cell_formula_units_Z   4
loop_
 _symmetry_equiv_pos_site_id
 _symmetry_equiv_pos_as_xyz
  1  'x, y, z'
loop_
 _atom_site_type_symbol
 _atom_site_label
 _atom_site_symmetry_multiplicity
 _atom_site_fract_x
 _atom_site_fract_y
 _atom_site_fract_z
 _atom_site_occupancy
  Li  Li0  1  0.59903300  0.19804400  0.90096800  1
  Li  Li1  1  0.84903500  0.69804900  0.15096700  1
  Li  Li2  1  0.09903100  0.19804300  0.40096700  1
  Li  Li3  1  0.34903200  0.69804200  0.65096700  1
  Li  Li4  1  0.65096700  0.30195500  0.34903200  1
  Li  Li5  1  0.90096800  0.80195700  0.59903200  1
  Li  Li6  1  0.15096600  0.30195400  0.84903400  1
  Li  Li7  1  0.40096700  0.80195600  0.09903100  1
  Fe  Fe8  1  0.49999900  0.00000000  0.49999900  1
  Fe  Fe9  1  0.75000300  0.50000100  0.75000100  1
  Fe  Fe10  1  0.99999800  0.99999800  0.99999900  1
  Fe  Fe11  1  0.25000000  0.50000000  0.24999900  1
  S  S12  1  0.43241200  0.36489300  0.06756900  1
  S  S13  1  0.68245600  0.86491200  0.31757000  1
  S  S14  1  0.93248400  0.36489300  0.56752600  1
  S  S15  1  0.18245900  0.86491200  0.81750900  1
  S  S16  1  0.81751900  0.13508900  0.18246600  1
  S  S17  1  0.06759300  0.63510600  0.43243400  1
  S  S18  1  0.31756300  0.13509000  0.68245000  1
  S  S19  1  0.56751400  0.63510600  0.93247400  1
loop_
 _atom_site_moment_label
 _atom_site_moment_crystalaxis_x
 _atom_site_moment_crystalaxis_y
 _atom_site_moment_crystalaxis_z
  Li0  -0.00023641  -0.00092883  -0.00022807
  Li1  0.00023641  0.00092883  0.00022807
  Li2  0.00023641  0.00092883  0.00022807
  Li3  -0.00023641  -0.00092883  -0.00022807
  Li4  -0.00023641  -0.00092883  -0.00022807
  Li5  -0.00023641  -0.00092883  -0.00022807
  Li6  0.00023641  0.00092883  0.00022807
  Li7  0.00023641  0.00092883  0.00022807
  Fe8  -0.45910129  -1.80378430  -0.44291609
  Fe9  -0.45910129  -1.80378430  -0.44291609
  Fe10  0.45910129  1.80378430  0.44291609
  Fe11  0.45910129  1.80378430  0.44291609
