# generated using pymatgen
data_Ba(MnAs)2
_symmetry_space_group_name_H-M   'P 1'
_cell_length_a   4.11492076
_cell_length_b   4.11491285
_cell_length_c   7.27395294
_cell_angle_alpha   73.56685857
_cell_angle_beta   73.56676798
_cell_angle_gamma   89.99809869
_symmetry_Int_Tables_number   1
_chemical_formula_structural   Ba(MnAs)2
_chemical_formula_sum   'Ba1 Mn2 As2'
_cell_volume   112.88018798
_cell_formula_units_Z   1
loop_
 _symmetry_equiv_pos_site_id
 _symmetry_equiv_pos_as_xyz
  1  'x, y, z'
loop_
 _atom_site_type_symbol
 _atom_site_label
 _atom_site_symmetry_multiplicity
 _atom_site_fract_x
 _atom_site_fract_y
 _atom_site_fract_z
 _atom_site_occupancy
  Ba  Ba0  1  0.00000000  0.00000000  0.00000000  1
  Mn  Mn1  1  0.75000200  0.24999600  0.50000000  1
  Mn  Mn2  1  0.24999700  0.75000300  0.50000000  1
  As  As3  1  0.64229100  0.64229200  0.71528000  1
  As  As4  1  0.35770800  0.35770800  0.28472000  1
loop_
 _atom_site_moment_label
 _atom_site_moment_crystalaxis_x
 _atom_site_moment_crystalaxis_y
 _atom_site_moment_crystalaxis_z
  Mn1  1.97218812  1.97218473  -3.48461758
  Mn2  -1.97162222  -1.97161883  3.48361769
