# generated using pymatgen
data_Na2MnSb2
_symmetry_space_group_name_H-M   'P 1'
_cell_length_a   9.17279182
_cell_length_b   22.37501300
_cell_length_c   22.47696136
_cell_angle_alpha   98.71014952
_cell_angle_beta   87.69831194
_cell_angle_gamma   92.53564315
_symmetry_Int_Tables_number   1
_chemical_formula_structural   Na2MnSb2
_chemical_formula_sum   'Na8 Mn4 Sb8'
_cell_volume   4552.91706673
_cell_formula_units_Z   4
loop_
 _symmetry_equiv_pos_site_id
 _symmetry_equiv_pos_as_xyz
  1  'x, y, z'
loop_
 _atom_site_type_symbol
 _atom_site_label
 _atom_site_symmetry_multiplicity
 _atom_site_fract_x
 _atom_site_fract_y
 _atom_site_fract_z
 _atom_site_occupancy
  Na  Na0  1  0.49974100  0.69056100  0.94094100  1
  Na  Na1  1  0.50006700  0.44082300  0.19113300  1
  Na  Na2  1  0.49977600  0.94082700  0.69079100  1
  Na  Na3  1  0.49979200  0.19067600  0.44068300  1
  Na  Na4  1  0.49979300  0.55906000  0.80909600  1
  Na  Na5  1  0.49988800  0.30894200  0.05906500  1
  Na  Na6  1  0.49970100  0.80918600  0.55933100  1
  Na  Na7  1  0.49977600  0.05928600  0.30958800  1
  Mn  Mn8  1  0.49968700  0.37489600  0.62488900  1
  Mn  Mn9  1  0.49977400  0.62467300  0.37556300  1
  Mn  Mn10  1  0.50048400  0.12560300  0.87421300  1
  Mn  Mn11  1  0.50020200  0.87491100  0.12525900  1
  Sb  Sb12  1  0.50033400  0.45941200  0.70963700  1
  Sb  Sb13  1  0.49956500  0.21023300  0.95867200  1
  Sb  Sb14  1  0.50013200  0.70929700  0.45997300  1
  Sb  Sb15  1  0.50110200  0.95949800  0.20998700  1
  Sb  Sb16  1  0.50088400  0.79041700  0.04043300  1
  Sb  Sb17  1  0.49992800  0.54025100  0.29096100  1
  Sb  Sb18  1  0.50018300  0.04113900  0.78957400  1
  Sb  Sb19  1  0.49919200  0.29030600  0.54020800  1
loop_
 _atom_site_moment_label
 _atom_site_moment_crystalaxis_x
 _atom_site_moment_crystalaxis_y
 _atom_site_moment_crystalaxis_z
  Na0  0.00006566  0.02149770  0.02148886
  Na1  0.00006566  0.02149770  0.02148886
  Na2  0.00006566  0.02149770  0.02148886
  Na3  0.00006566  0.02149770  0.02148886
  Na4  0.00006566  0.02149770  0.02148886
  Na5  0.00006566  0.02149770  0.02148886
  Na6  0.00006566  0.02149770  0.02148886
  Na7  0.00006566  0.02149770  0.02148886
  Mn8  -0.00918008  -3.00583927  -3.00460313
  Mn9  -0.00916601  -3.00123262  -2.99999837
  Mn10  0.00919415  3.01044592  3.00920788
  Mn11  0.00920353  3.01351702  3.01227772
  Sb12  0.00077380  0.25336576  0.25326157
  Sb13  -0.00081132  -0.26565016  -0.26554091
  Sb14  0.00077614  0.25413354  0.25402903
  Sb15  -0.00081601  -0.26718571  -0.26707583
  Sb16  -0.00081601  -0.26718571  -0.26707583
  Sb17  0.00077614  0.25413354  0.25402903
  Sb18  -0.00081366  -0.26641794  -0.26630837
  Sb19  0.00077380  0.25336576  0.25326157
