# generated using pymatgen
data_V5Se8
_symmetry_space_group_name_H-M   'P 1'
_cell_length_a   6.94988198
_cell_length_b   6.94893157
_cell_length_c   12.01026579
_cell_angle_alpha   91.04990883
_cell_angle_beta   91.03878987
_cell_angle_gamma   60.86909651
_symmetry_Int_Tables_number   1
_chemical_formula_structural   V5Se8
_chemical_formula_sum   'V10 Se16'
_cell_volume   506.54588451
_cell_formula_units_Z   2
loop_
 _symmetry_equiv_pos_site_id
 _symmetry_equiv_pos_as_xyz
  1  'x, y, z'
loop_
 _atom_site_type_symbol
 _atom_site_label
 _atom_site_symmetry_multiplicity
 _atom_site_fract_x
 _atom_site_fract_y
 _atom_site_fract_z
 _atom_site_occupancy
  V  V0  1  0.25207600  0.25208100  0.97819800  1
  V  V1  1  0.95106900  0.54863500  0.25195100  1
  V  V2  1  0.46238200  0.03630200  0.75141700  1
  V  V3  1  0.54859400  0.95111000  0.25196300  1
  V  V4  1  0.03628300  0.46239100  0.75144800  1
  V  V5  1  0.99967100  0.99969200  0.00255000  1
  V  V6  1  0.49860200  0.49855700  0.49887000  1
  V  V7  1  0.74698900  0.74700100  0.02002900  1
  V  V8  1  0.24767400  0.24742900  0.52022600  1
  V  V9  1  0.75311600  0.75319800  0.47475800  1
  Se  Se10  1  0.14699100  0.14701700  0.16250000  1
  Se  Se11  1  0.64605500  0.64604900  0.65974200  1
  Se  Se12  1  0.35478000  0.35480800  0.33710800  1
  Se  Se13  1  0.85851800  0.85852700  0.83874300  1
  Se  Se14  1  0.60748700  0.60752000  0.16905400  1
  Se  Se15  1  0.10958600  0.10963100  0.66991000  1
  Se  Se16  1  0.89472400  0.89475100  0.33069100  1
  Se  Se17  1  0.39038200  0.39039200  0.83099300  1
  Se  Se18  1  0.62241200  0.12901300  0.08759000  1
  Se  Se19  1  0.12281200  0.62977800  0.58538900  1
  Se  Se20  1  0.87674600  0.36989200  0.41268200  1
  Se  Se21  1  0.37542200  0.86888900  0.91425800  1
  Se  Se22  1  0.36986000  0.87668700  0.41268400  1
  Se  Se23  1  0.86886100  0.37543700  0.91427900  1
  Se  Se24  1  0.12902300  0.62242100  0.08758100  1
  Se  Se25  1  0.62988900  0.12279600  0.58538800  1
loop_
 _atom_site_moment_label
 _atom_site_moment_crystalaxis_x
 _atom_site_moment_crystalaxis_y
 _atom_site_moment_crystalaxis_z
  V0  -0.43913876  -0.43934013  -0.77619718
  V1  0.05361340  0.05363798  0.09476405
  V2  -0.32986565  -0.33001691  -0.58305212
  V3  0.05484119  0.05486634  0.09693422
  V4  -0.33150270  -0.33165472  -0.58594568
  V5  0.76491178  0.76526255  1.35201541
  V6  0.73544487  0.73578213  1.29993135
  V7  0.52058201  0.52082074  0.92015174
  V8  0.52549316  0.52573414  0.92883241
  V9  -0.45510000  -0.45530870  -0.80440938
  Se10  -0.00982230  -0.00982681  -0.01736135
  Se11  -0.00081853  -0.00081890  -0.00144678
  Se12  -0.01391493  -0.01392131  -0.02459525
  Se13  -0.00245558  -0.00245670  -0.00434034
  Se14  -0.00450189  -0.00450395  -0.00795729
  Se15  0.00736673  0.00737010  0.01302102
  Se16  -0.00245558  -0.00245670  -0.00434034
  Se17  0.01473345  0.01474021  0.02604203
  Se18  -0.01186862  -0.01187406  -0.02097830
  Se19  -0.00695746  -0.00696065  -0.01229763
  Se20  -0.00695746  -0.00696065  -0.01229763
  Se21  -0.00163705  -0.00163780  -0.00289356
  Se22  -0.00695746  -0.00696065  -0.01229763
  Se23  -0.00163705  -0.00163780  -0.00289356
  Se24  -0.01186862  -0.01187406  -0.02097830
  Se25  -0.00695746  -0.00696065  -0.01229763
