# generated using pymatgen
data_MgMnTe2
_symmetry_space_group_name_H-M   'P 1'
_cell_length_a   6.39699211
_cell_length_b   6.39699211
_cell_length_c   7.82380848
_cell_angle_alpha   65.87035692
_cell_angle_beta   65.87035692
_cell_angle_gamma   90.00143133
_symmetry_Int_Tables_number   1
_chemical_formula_structural   MgMnTe2
_chemical_formula_sum   'Mg2 Mn2 Te4'
_cell_volume   261.23189948
_cell_formula_units_Z   2
loop_
 _symmetry_equiv_pos_site_id
 _symmetry_equiv_pos_as_xyz
  1  'x, y, z'
loop_
 _atom_site_type_symbol
 _atom_site_label
 _atom_site_symmetry_multiplicity
 _atom_site_fract_x
 _atom_site_fract_y
 _atom_site_fract_z
 _atom_site_occupancy
  Mg  Mg0  1  0.50000100  0.50000100  0.00000100  1
  Mg  Mg1  1  0.00000100  0.00000100  0.00000000  1
  Mn  Mn2  1  0.24997200  0.74997400  0.50000300  1
  Mn  Mn3  1  0.74997800  0.24997700  0.49999400  1
  Te  Te4  1  0.61944300  0.11944300  0.26111700  1
  Te  Te5  1  0.11944000  0.61944000  0.26111700  1
  Te  Te6  1  0.88058100  0.88058300  0.73888400  1
  Te  Te7  1  0.38058400  0.38058100  0.73888400  1
loop_
 _atom_site_moment_label
 _atom_site_moment_crystalaxis_x
 _atom_site_moment_crystalaxis_y
 _atom_site_moment_crystalaxis_z
  Mn2  2.08381243  2.08381243  -5.09721031
  Mn3  -2.08381243  -2.08381243  5.09721031
