# generated using pymatgen
data_Rb2MnP2
_symmetry_space_group_name_H-M   'P 1'
_cell_length_a   4.57585000
_cell_length_b   14.09950968
_cell_length_c   13.86615766
_cell_angle_alpha   77.53477700
_cell_angle_beta   95.15531520
_cell_angle_gamma   81.47972793
_symmetry_Int_Tables_number   1
_chemical_formula_structural   Rb2MnP2
_chemical_formula_sum   'Rb8 Mn4 P8'
_cell_volume   856.97379558
_cell_formula_units_Z   4
loop_
 _symmetry_equiv_pos_site_id
 _symmetry_equiv_pos_as_xyz
  1  'x, y, z'
loop_
 _atom_site_type_symbol
 _atom_site_label
 _atom_site_symmetry_multiplicity
 _atom_site_fract_x
 _atom_site_fract_y
 _atom_site_fract_z
 _atom_site_occupancy
  Rb  Rb0  1  0.47060200  0.82265000  0.70542400  1
  Rb  Rb1  1  0.47593200  0.82450500  0.20686900  1
  Rb  Rb2  1  0.98025400  0.61835800  0.97821800  1
  Rb  Rb3  1  0.98052800  0.61599800  0.47623300  1
  Rb  Rb4  1  0.52665500  0.37977900  0.77265400  1
  Rb  Rb5  1  0.51909700  0.38141000  0.26170400  1
  Rb  Rb6  1  0.01944000  0.17790200  0.04313200  1
  Rb  Rb7  1  0.00406200  0.19419300  0.53711100  1
  Mn  Mn8  1  0.54090700  0.93579900  0.40595500  1
  Mn  Mn9  1  0.96301900  0.06188600  0.84684100  1
  Mn  Mn10  1  0.54357300  0.93545900  0.90429800  1
  Mn  Mn11  1  0.95967300  0.06276100  0.35110800  1
  P  P12  1  0.47367900  0.10410800  0.87479400  1
  P  P13  1  0.46858200  0.10468300  0.37883400  1
  P  P14  1  0.10593500  0.20871900  0.27869700  1
  P  P15  1  0.10879800  0.20902300  0.77774000  1
  P  P16  1  0.39786200  0.78706100  0.47123000  1
  P  P17  1  0.39909000  0.78824000  0.97351500  1
  P  P18  1  0.03245300  0.89312000  0.87712600  1
  P  P19  1  0.02986000  0.89434500  0.37851800  1
loop_
 _atom_site_moment_label
 _atom_site_moment_crystalaxis_x
 _atom_site_moment_crystalaxis_y
 _atom_site_moment_crystalaxis_z
  Rb0  -0.00020706  0.00207137  -0.00056829
  Rb1  0.00020706  -0.00207137  0.00056829
  Rb2  -0.00010353  0.00103569  -0.00028414
  Rb3  0.00010353  -0.00103569  0.00028414
  Rb4  0.00010353  -0.00103569  0.00028414
  Rb5  -0.00010353  0.00103569  -0.00028414
  Rb6  0.00020706  -0.00207137  0.00056829
  Rb7  -0.00020706  0.00207137  -0.00056829
  Mn8  0.33202076  -3.32144214  0.91124543
  Mn9  0.33284900  -3.32972763  0.91351857
  Mn10  -0.33108899  3.31212098  -0.90868815
  Mn11  -0.33253841  3.32662057  -0.91266615
  P12  0.00010353  -0.00103569  0.00028414
  P13  -0.00041412  0.00414274  -0.00113657
  P14  -0.00227766  0.02278507  -0.00625114
  P15  0.00207060  -0.02071370  0.00568285
  P16  0.00186354  -0.01864233  0.00511457
  P17  -0.00207060  0.02071370  -0.00568285
  P18  -0.00020706  0.00207137  -0.00056829
