# generated using pymatgen
data_CsFe2Te3
_symmetry_space_group_name_H-M   'P 1'
_cell_length_a   5.82148701
_cell_length_b   8.57431371
_cell_length_c   8.57432898
_cell_angle_alpha   103.56862741
_cell_angle_beta   90.00456000
_cell_angle_gamma   89.99527612
_symmetry_Int_Tables_number   1
_chemical_formula_structural   CsFe2Te3
_chemical_formula_sum   'Cs2 Fe4 Te6'
_cell_volume   416.04445932
_cell_formula_units_Z   2
loop_
 _symmetry_equiv_pos_site_id
 _symmetry_equiv_pos_as_xyz
  1  'x, y, z'
loop_
 _atom_site_type_symbol
 _atom_site_label
 _atom_site_symmetry_multiplicity
 _atom_site_fract_x
 _atom_site_fract_y
 _atom_site_fract_z
 _atom_site_occupancy
  Cs  Cs0  1  0.25010600  0.32504700  0.67454000  1
  Cs  Cs1  1  0.74989200  0.67454700  0.32504400  1
  Fe  Fe2  1  0.50000200  0.13486300  0.13485800  1
  Fe  Fe3  1  0.99999900  0.86542600  0.86542500  1
  Fe  Fe4  1  0.50000400  0.86525200  0.86525700  1
  Fe  Fe5  1  0.99999600  0.13477400  0.13477100  1
  Te  Te6  1  0.24986300  0.88356100  0.11665500  1
  Te  Te7  1  0.75013100  0.11665700  0.88355200  1
  Te  Te8  1  0.24946600  0.37895000  0.16498700  1
  Te  Te9  1  0.75047300  0.62129200  0.83466500  1
  Te  Te10  1  0.24953400  0.83464400  0.62129500  1
  Te  Te11  1  0.75053400  0.16498800  0.37894800  1
loop_
 _atom_site_moment_label
 _atom_site_moment_crystalaxis_x
 _atom_site_moment_crystalaxis_y
 _atom_site_moment_crystalaxis_z
  Fe2  -0.00009548  0.02869870  -2.56111547
  Fe3  -0.00009481  0.02849754  -2.54316373
  Fe4  0.00009529  -0.02864282  2.55612887
  Fe5  0.00009496  -0.02854224  2.54715300
  Te8  -0.00000004  0.00001118  -0.00099732
  Te9  0.00000004  -0.00001118  0.00099732
  Te10  0.00000004  -0.00001118  0.00099732
  Te11  -0.00000004  0.00001118  -0.00099732
