# generated using pymatgen
data_LiAl2Co
_symmetry_space_group_name_H-M   'P 1'
_cell_length_a   14.09141764
_cell_length_b   17.14199461
_cell_length_c   13.91394110
_cell_angle_alpha   120.61059815
_cell_angle_beta   109.43152824
_cell_angle_gamma   58.29991556
_symmetry_Int_Tables_number   1
_chemical_formula_structural   LiAl2Co
_chemical_formula_sum   'Li4 Al8 Co4'
_cell_volume   2451.32461327
_cell_formula_units_Z   4
loop_
 _symmetry_equiv_pos_site_id
 _symmetry_equiv_pos_as_xyz
  1  'x, y, z'
loop_
 _atom_site_type_symbol
 _atom_site_label
 _atom_site_symmetry_multiplicity
 _atom_site_fract_x
 _atom_site_fract_y
 _atom_site_fract_z
 _atom_site_occupancy
  Li  Li0  1  0.75620800  0.52613200  0.74311600  1
  Li  Li1  1  0.25656100  0.52542300  0.24243800  1
  Li  Li2  1  0.46741300  0.01343000  0.53252500  1
  Li  Li3  1  0.96457300  0.01365600  0.03551400  1
  Al  Al4  1  0.30877800  0.00976100  0.35387700  1
  Al  Al5  1  0.80866400  0.00788600  0.85455200  1
  Al  Al6  1  0.07787900  0.52149800  0.08540100  1
  Al  Al7  1  0.59688800  0.50809600  0.56577200  1
  Al  Al8  1  0.14592900  0.01054600  0.18989600  1
  Al  Al9  1  0.64638500  0.01042900  0.68996200  1
  Al  Al10  1  0.91333800  0.52351900  0.92296800  1
  Al  Al11  1  0.43435500  0.50777700  0.40219000  1
  Co  Co12  1  0.82424400  0.97522000  0.67724800  1
  Co  Co13  1  0.02688000  0.39193600  0.97506400  1
  Co  Co14  1  0.32500400  0.97005900  0.17385000  1
  Co  Co15  1  0.44690000  0.48463300  0.55563400  1
loop_
 _atom_site_moment_label
 _atom_site_moment_crystalaxis_x
 _atom_site_moment_crystalaxis_y
 _atom_site_moment_crystalaxis_z
  Al4  0.00157232  -0.00619016  -0.00766382
  Al5  -0.00157232  0.00619016  0.00766382
  Al6  -0.00179694  0.00707447  0.00875865
  Al7  0.00179694  -0.00707447  -0.00875865
  Al8  0.00179694  -0.00707447  -0.00875865
  Al9  -0.00157232  0.00619016  0.00766382
  Al10  -0.00179694  0.00707447  0.00875865
  Al11  0.00179694  -0.00707447  -0.00875865
  Co12  0.37892901  -1.49182953  -1.84698064
  Co13  0.38005209  -1.49625108  -1.85245479
  Co14  -0.37892901  1.49182953  1.84698064
  Co15  -0.38117518  1.50067263  1.85792895
