# generated using pymatgen
data_KMnTe2
_symmetry_space_group_name_H-M   'P 1'
_cell_length_a   4.42910646
_cell_length_b   4.42909983
_cell_length_c   7.49276906
_cell_angle_alpha   107.20620207
_cell_angle_beta   107.20618612
_cell_angle_gamma   89.90540214
_symmetry_Int_Tables_number   1
_chemical_formula_structural   KMnTe2
_chemical_formula_sum   'K1 Mn1 Te2'
_cell_volume   133.52849368
_cell_formula_units_Z   1
loop_
 _symmetry_equiv_pos_site_id
 _symmetry_equiv_pos_as_xyz
  1  'x, y, z'
loop_
 _atom_site_type_symbol
 _atom_site_label
 _atom_site_symmetry_multiplicity
 _atom_site_fract_x
 _atom_site_fract_y
 _atom_site_fract_z
 _atom_site_occupancy
  K  K0  1  0.00002000  0.99998200  0.00000100  1
  Mn  Mn1  1  0.24984000  0.75015900  0.50000000  1
  Te  Te2  1  0.35637100  0.35623100  0.71145500  1
  Te  Te3  1  0.64376900  0.64362800  0.28854500  1
loop_
 _atom_site_moment_label
 _atom_site_moment_crystalaxis_x
 _atom_site_moment_crystalaxis_y
 _atom_site_moment_crystalaxis_z
  K0  0.00009938  0.00009937  0.00505716
  Mn1  0.07632022  0.07631965  3.88389850
  Te2  -0.00182851  -0.00182849  -0.09305173
  Te3  -0.00182851  -0.00182849  -0.09305173
