# generated using pymatgen
data_LiVS3
_symmetry_space_group_name_H-M   'P 1'
_cell_length_a   5.90278849
_cell_length_b   7.19856881
_cell_length_c   12.24775525
_cell_angle_alpha   94.80301634
_cell_angle_beta   76.14813003
_cell_angle_gamma   118.35366864
_symmetry_Int_Tables_number   1
_chemical_formula_structural   LiVS3
_chemical_formula_sum   'Li4 V4 S12'
_cell_volume   444.39994271
_cell_formula_units_Z   4
loop_
 _symmetry_equiv_pos_site_id
 _symmetry_equiv_pos_as_xyz
  1  'x, y, z'
loop_
 _atom_site_type_symbol
 _atom_site_label
 _atom_site_symmetry_multiplicity
 _atom_site_fract_x
 _atom_site_fract_y
 _atom_site_fract_z
 _atom_site_occupancy
  Li  Li0  1  0.07365500  0.32221200  0.40528300  1
  Li  Li1  1  0.57376700  0.82290000  0.90519500  1
  Li  Li2  1  0.42636500  0.17738300  0.09496100  1
  Li  Li3  1  0.92622500  0.67763000  0.59461600  1
  V  V4  1  0.00259700  0.28486200  0.78337500  1
  V  V5  1  0.49756100  0.21556500  0.71664400  1
  V  V6  1  0.50251900  0.78438400  0.28335600  1
  V  V7  1  0.99733400  0.71520100  0.21660500  1
  S  S8  1  0.64245000  0.00900700  0.42759800  1
  S  S9  1  0.14269800  0.50953100  0.92754600  1
  S  S10  1  0.85747800  0.49052800  0.07240600  1
  S  S11  1  0.35742400  0.99075100  0.57240900  1
  S  S12  1  0.43131100  0.83819500  0.11833000  1
  S  S13  1  0.93149000  0.33857300  0.61827500  1
  S  S14  1  0.06856700  0.66131800  0.38163400  1
  S  S15  1  0.56874400  0.16201300  0.88176200  1
  S  S16  1  0.96870200  0.00807200  0.21234700  1
  S  S17  1  0.46900500  0.50851600  0.71226900  1
  S  S18  1  0.53087600  0.49138200  0.28768200  1
  S  S19  1  0.03122600  0.99198000  0.78769800  1
loop_
 _atom_site_moment_label
 _atom_site_moment_crystalaxis_x
 _atom_site_moment_crystalaxis_y
 _atom_site_moment_crystalaxis_z
  Li0  0.00047973  0.00050272  -0.00093965
  Li1  -0.00047973  -0.00050272  0.00093965
  Li2  0.00047973  0.00050272  -0.00093965
  Li3  -0.00047973  -0.00050272  0.00093965
  V4  0.44998565  0.47154682  -0.88139230
  V5  0.44950592  0.47104411  -0.88045265
  V6  -0.44998565  -0.47154682  0.88139230
  V7  -0.44902619  -0.47054139  0.87951300
  S8  0.01151349  0.01206516  -0.02255162
  S9  -0.01199322  -0.01256788  0.02349127
  S10  0.01151349  0.01206516  -0.02255162
  S11  -0.01151349  -0.01206516  0.02255162
  S12  0.01055403  0.01105973  -0.02067231
  S13  -0.01055403  -0.01105973  0.02067231
  S14  0.01055403  0.01105973  -0.02067231
  S15  -0.01055403  -0.01105973  0.02067231
  S16  0.01822970  0.01910318  -0.03570672
  S17  -0.01822970  -0.01910318  0.03570672
  S18  0.01822970  0.01910318  -0.03570672
  S19  -0.01822970  -0.01910318  0.03570672
