# generated using pymatgen
data_GaCo3
_symmetry_space_group_name_H-M   'P 1'
_cell_length_a   5.08703500
_cell_length_b   5.08682815
_cell_length_c   4.11588200
_cell_angle_alpha   89.99995846
_cell_angle_beta   90.00002518
_cell_angle_gamma   119.99745225
_symmetry_Int_Tables_number   1
_chemical_formula_structural   GaCo3
_chemical_formula_sum   'Ga2 Co6'
_cell_volume   92.23940389
_cell_formula_units_Z   2
loop_
 _symmetry_equiv_pos_site_id
 _symmetry_equiv_pos_as_xyz
  1  'x, y, z'
loop_
 _atom_site_type_symbol
 _atom_site_label
 _atom_site_symmetry_multiplicity
 _atom_site_fract_x
 _atom_site_fract_y
 _atom_site_fract_z
 _atom_site_occupancy
  Ga  Ga0  1  0.33330000  0.66669700  0.75000000  1
  Ga  Ga1  1  0.66658400  0.33333200  0.25000000  1
  Co  Co2  1  0.16565400  0.33123700  0.25000000  1
  Co  Co3  1  0.66874300  0.83435000  0.25000000  1
  Co  Co4  1  0.16564300  0.83438500  0.25000000  1
  Co  Co5  1  0.83438700  0.66871500  0.75000000  1
  Co  Co6  1  0.33132000  0.16563900  0.75000000  1
  Co  Co7  1  0.83436900  0.16564600  0.75000000  1
loop_
 _atom_site_moment_label
 _atom_site_moment_crystalaxis_x
 _atom_site_moment_crystalaxis_y
 _atom_site_moment_crystalaxis_z
  Ga0  0.00000000  0.00000002  -0.08700000
  Ga1  0.00000000  0.00000002  -0.08700000
  Co2  0.00000013  -0.00000037  1.31200000
  Co3  0.00000014  -0.00000037  1.33400000
  Co4  0.00000014  -0.00000037  1.33100000
  Co5  0.00000014  -0.00000037  1.32500000
  Co6  0.00000013  -0.00000037  1.31400000
  Co7  0.00000014  -0.00000037  1.32600000
