# generated using pymatgen
data_Mg14FeSi
_symmetry_space_group_name_H-M   'P 1'
_cell_length_a   10.67902727
_cell_length_b   11.81962993
_cell_length_c   11.81962256
_cell_angle_alpha   65.91008986
_cell_angle_beta   90.00043107
_cell_angle_gamma   89.99956853
_symmetry_Int_Tables_number   1
_chemical_formula_structural   Mg14FeSi
_chemical_formula_sum   'Mg56 Fe4 Si4'
_cell_volume   1361.96290148
_cell_formula_units_Z   4
loop_
 _symmetry_equiv_pos_site_id
 _symmetry_equiv_pos_as_xyz
  1  'x, y, z'
loop_
 _atom_site_type_symbol
 _atom_site_label
 _atom_site_symmetry_multiplicity
 _atom_site_fract_x
 _atom_site_fract_y
 _atom_site_fract_z
 _atom_site_occupancy
  Mg  Mg0  1  0.83817000  0.50208100  0.49781300  1
  Mg  Mg1  1  0.33819600  0.74793500  0.25217100  1
  Mg  Mg2  1  0.33819600  0.24783000  0.75206500  1
  Mg  Mg3  1  0.83817000  0.00218700  0.99791900  1
  Mg  Mg4  1  0.33778700  0.50380500  0.49618800  1
  Mg  Mg5  1  0.83778700  0.74625300  0.25380200  1
  Mg  Mg6  1  0.83778700  0.24619800  0.75374700  1
  Mg  Mg7  1  0.33778700  0.00381200  0.99619500  1
  Mg  Mg8  1  0.57164000  0.62252200  0.87747800  1
  Mg  Mg9  1  0.14868100  0.88160100  0.61839900  1
  Mg  Mg10  1  0.14950600  0.38157200  0.11842800  1
  Mg  Mg11  1  0.57119600  0.12214100  0.37785900  1
  Mg  Mg12  1  0.64936600  0.86854000  0.63146000  1
  Mg  Mg13  1  0.07123000  0.12797400  0.37202600  1
  Mg  Mg14  1  0.07171500  0.62745500  0.87254500  1
  Mg  Mg15  1  0.64875900  0.36845700  0.13154300  1
  Mg  Mg16  1  0.58619400  0.37499200  0.62491900  1
  Mg  Mg17  1  0.08109000  0.62501400  0.37505200  1
  Mg  Mg18  1  0.08109000  0.12494800  0.87498700  1
  Mg  Mg19  1  0.58619400  0.87508100  0.12500900  1
  Mg  Mg20  1  0.58109300  0.62498500  0.37494500  1
  Mg  Mg21  1  0.08621600  0.87502500  0.12507900  1
  Mg  Mg22  1  0.08621600  0.37492100  0.62497500  1
  Mg  Mg23  1  0.58109300  0.12505500  0.87501500  1
  Mg  Mg24  1  0.66667300  0.62440700  0.62931600  1
  Mg  Mg25  1  0.16660300  0.87962100  0.37447900  1
  Mg  Mg26  1  0.16672000  0.37930300  0.87440700  1
  Mg  Mg27  1  0.66659800  0.12446900  0.12962300  1
  Mg  Mg28  1  0.66667300  0.87068400  0.87559300  1
  Mg  Mg29  1  0.16660300  0.12552100  0.62037900  1
  Mg  Mg30  1  0.16672000  0.62559300  0.12069700  1
  Mg  Mg31  1  0.66659800  0.37037800  0.37553100  1
  Mg  Mg32  1  0.16331700  0.62485000  0.62628200  1
  Mg  Mg33  1  0.66312900  0.87623400  0.37483600  1
  Mg  Mg34  1  0.66335300  0.37627300  0.87484900  1
  Mg  Mg35  1  0.16315000  0.12484800  0.12624300  1
  Mg  Mg36  1  0.16331600  0.87371800  0.87515000  1
  Mg  Mg37  1  0.66312900  0.12516400  0.62376600  1
  Mg  Mg38  1  0.66335300  0.62515100  0.12372700  1
  Mg  Mg39  1  0.16315000  0.37375700  0.37515200  1
  Mg  Mg40  1  0.41046500  0.50347300  0.75364000  1
  Mg  Mg41  1  0.90928200  0.77798800  0.53967500  1
  Mg  Mg42  1  0.90929600  0.27810200  0.04081200  1
  Mg  Mg43  1  0.41007400  0.00344300  0.25394800  1
  Mg  Mg44  1  0.41046500  0.74636000  0.99652800  1
  Mg  Mg45  1  0.90928200  0.96032500  0.72201200  1
  Mg  Mg46  1  0.90929700  0.45918700  0.22189800  1
  Mg  Mg47  1  0.41007500  0.24605300  0.49655700  1
  Mg  Mg48  1  0.40925900  0.79069400  0.52812500  1
  Mg  Mg49  1  0.91006700  0.00392600  0.25345800  1
  Mg  Mg50  1  0.91049500  0.50353000  0.75352200  1
  Mg  Mg51  1  0.40933500  0.28971300  0.02801300  1
  Mg  Mg52  1  0.40925900  0.97187500  0.70930600  1
  Mg  Mg53  1  0.91006700  0.24654200  0.49607400  1
  Mg  Mg54  1  0.91049500  0.74647800  0.99647100  1
  Mg  Mg55  1  0.40933500  0.47198700  0.21028700  1
  Fe  Fe56  1  0.81863900  0.70460300  0.79539700  1
  Fe  Fe57  1  0.31866000  0.54532300  0.95467800  1
  Fe  Fe58  1  0.31784900  0.04523700  0.45476400  1
  Fe  Fe59  1  0.81784500  0.20487800  0.29512200  1
  Si  Si60  1  0.31914100  0.72233900  0.77766100  1
  Si  Si61  1  0.81894700  0.02818900  0.47181100  1
  Si  Si62  1  0.81922200  0.52765100  0.97234900  1
  Si  Si63  1  0.31893700  0.22175300  0.27824700  1
loop_
 _atom_site_moment_label
 _atom_site_moment_crystalaxis_x
 _atom_site_moment_crystalaxis_y
 _atom_site_moment_crystalaxis_z
  Mg8  0.00000000  0.00774642  0.00774642
  Mg9  0.00000000  -0.00357527  -0.00357527
  Mg10  0.00000000  0.00357527  0.00357527
  Mg11  0.00000000  -0.00774642  -0.00774642
  Mg12  0.00000000  0.00357527  0.00357527
  Mg13  0.00000000  -0.00774642  -0.00774642
  Mg14  0.00000000  0.00774642  0.00774642
  Mg15  0.00000000  -0.00357527  -0.00357527
  Mg24  0.00000000  0.00297939  0.00297939
  Mg25  0.00000000  -0.00357527  -0.00357527
  Mg26  0.00000000  0.00297939  0.00297939
  Mg27  0.00000000  -0.00297939  -0.00297939
  Mg28  0.00000000  0.00297939  0.00297939
  Mg29  0.00000000  -0.00357527  -0.00357527
  Mg30  0.00000000  0.00297939  0.00297939
  Mg31  0.00000000  -0.00297939  -0.00297939
  Mg32  0.00000000  -0.00238351  -0.00238351
  Mg33  0.00000000  0.00238351  0.00238351
  Mg34  0.00000000  -0.00238351  -0.00238351
  Mg35  0.00000000  0.00238351  0.00238351
  Mg36  0.00000000  -0.00238351  -0.00238351
  Mg37  0.00000000  0.00238351  0.00238351
  Mg38  0.00000000  -0.00238351  -0.00238351
  Mg39  0.00000000  0.00238351  0.00238351
  Mg40  0.00000000  0.00297939  0.00297939
  Mg41  0.00000000  0.00178763  0.00178763
  Mg42  0.00000000  -0.00178763  -0.00178763
  Mg43  0.00000000  -0.00297939  -0.00297939
  Mg44  0.00000000  0.00297939  0.00297939
  Mg45  0.00000000  0.00178763  0.00178763
  Mg46  0.00000000  -0.00178763  -0.00178763
  Mg47  0.00000000  -0.00297939  -0.00297939
  Mg48  0.00000000  -0.00178763  -0.00178763
  Mg49  0.00000000  -0.00297939  -0.00297939
  Mg50  0.00000000  0.00297939  0.00297939
  Mg51  0.00000000  0.00119176  0.00119176
  Mg52  0.00000000  -0.00178763  -0.00178763
  Mg53  0.00000000  -0.00297939  -0.00297939
  Mg54  0.00000000  0.00297939  0.00297939
  Mg55  0.00000000  0.00119176  0.00119176
  Fe56  0.00000000  -1.25730284  -1.25730320
  Fe57  0.00000000  -1.24538528  -1.24538563
  Fe58  0.00000000  1.27398743  1.27398779
  Fe59  0.00000000  1.26028223  1.26028259
  Si60  0.00000000  0.01072581  0.01072581
  Si61  0.00000000  -0.01132168  -0.01132169
  Si62  0.00000000  0.01132168  0.01132169
  Si63  0.00000000  -0.01191756  -0.01191757
