# generated using pymatgen
data_Cr3Te4
_symmetry_space_group_name_H-M   'P 1'
_cell_length_a   7.30073000
_cell_length_b   7.30072476
_cell_length_c   6.97523119
_cell_angle_alpha   62.94776324
_cell_angle_beta   62.94758020
_cell_angle_gamma   31.79018675
_symmetry_Int_Tables_number   1
_chemical_formula_structural   Cr3Te4
_chemical_formula_sum   'Cr3 Te4'
_cell_volume   172.57671154
_cell_formula_units_Z   1
loop_
 _symmetry_equiv_pos_site_id
 _symmetry_equiv_pos_as_xyz
  1  'x, y, z'
loop_
 _atom_site_type_symbol
 _atom_site_label
 _atom_site_symmetry_multiplicity
 _atom_site_fract_x
 _atom_site_fract_y
 _atom_site_fract_z
 _atom_site_occupancy
  Cr  Cr0  1  0.99999800  0.99999900  0.00000500  1
  Cr  Cr1  1  0.26029500  0.26028800  0.72017200  1
  Cr  Cr2  1  0.73970800  0.73971200  0.27982900  1
  Te  Te3  1  0.36626400  0.36626500  0.97511800  1
  Te  Te4  1  0.63373500  0.63373500  0.02488500  1
  Te  Te5  1  0.12063700  0.12063800  0.54857300  1
  Te  Te6  1  0.87936300  0.87936400  0.45141800  1
loop_
 _atom_site_moment_label
 _atom_site_moment_crystalaxis_x
 _atom_site_moment_crystalaxis_y
 _atom_site_moment_crystalaxis_z
  Cr0  -0.00048480  -0.00045023  3.39442516
  Cr1  -0.00046695  -0.00043365  3.26940950
  Cr2  -0.00046695  -0.00043365  3.26940950
  Te3  0.00002000  0.00001857  -0.14001754
  Te4  0.00002000  0.00001857  -0.14001754
  Te5  0.00002471  0.00002295  -0.17302167
  Te6  0.00002471  0.00002295  -0.17302167
