# generated using pymatgen
data_Ba(MnP)2
_symmetry_space_group_name_H-M   'P 1'
_cell_length_a   3.96645742
_cell_length_b   3.96649157
_cell_length_c   7.02877938
_cell_angle_alpha   106.37684472
_cell_angle_beta   106.37670077
_cell_angle_gamma   90.00111164
_symmetry_Int_Tables_number   1
_chemical_formula_structural   Ba(MnP)2
_chemical_formula_sum   'Ba1 Mn2 P2'
_cell_volume   101.41165590
_cell_formula_units_Z   1
loop_
 _symmetry_equiv_pos_site_id
 _symmetry_equiv_pos_as_xyz
  1  'x, y, z'
loop_
 _atom_site_type_symbol
 _atom_site_label
 _atom_site_symmetry_multiplicity
 _atom_site_fract_x
 _atom_site_fract_y
 _atom_site_fract_z
 _atom_site_occupancy
  Ba  Ba0  1  0.00000200  0.00000300  0.00000400  1
  Mn  Mn1  1  0.75004000  0.24995700  0.49999700  1
  Mn  Mn2  1  0.24996000  0.75004100  0.50000200  1
  P  P3  1  0.64994700  0.64994800  0.29986100  1
  P  P4  1  0.35005100  0.35005100  0.70013700  1
loop_
 _atom_site_moment_label
 _atom_site_moment_crystalaxis_x
 _atom_site_moment_crystalaxis_y
 _atom_site_moment_crystalaxis_z
  Mn1  -0.03158767  -0.03159537  -3.08654112
  Mn2  0.03158767  0.03159537  3.08654112
