# generated using pymatgen
data_CaMnSb2
_symmetry_space_group_name_H-M   'P 1'
_cell_length_a   4.33666701
_cell_length_b   4.33651801
_cell_length_c   10.87119800
_cell_angle_alpha   89.99997097
_cell_angle_beta   90.00010555
_cell_angle_gamma   90.00721384
_symmetry_Int_Tables_number   1
_chemical_formula_structural   CaMnSb2
_chemical_formula_sum   'Ca2 Mn2 Sb4'
_cell_volume   204.44412389
_cell_formula_units_Z   2
loop_
 _symmetry_equiv_pos_site_id
 _symmetry_equiv_pos_as_xyz
  1  'x, y, z'
loop_
 _atom_site_type_symbol
 _atom_site_label
 _atom_site_symmetry_multiplicity
 _atom_site_fract_x
 _atom_site_fract_y
 _atom_site_fract_z
 _atom_site_occupancy
  Ca  Ca0  1  0.00000000  0.49999900  0.23250000  1
  Ca  Ca1  1  0.49999900  0.00000000  0.76750000  1
  Mn  Mn2  1  0.49999900  0.49999900  0.49999900  1
  Mn  Mn3  1  0.99999900  0.00000000  0.50000100  1
  Sb  Sb4  1  0.99998800  0.00000100  0.00000000  1
  Sb  Sb5  1  0.50001100  0.49999800  0.99999900  1
  Sb  Sb6  1  0.99999900  0.50000100  0.65139600  1
  Sb  Sb7  1  0.50000500  0.00000200  0.34860500  1
loop_
 _atom_site_moment_label
 _atom_site_moment_crystalaxis_x
 _atom_site_moment_crystalaxis_y
 _atom_site_moment_crystalaxis_z
  Mn2  -0.00000334  0.00000100  -3.62900000
  Mn3  0.00000334  -0.00000100  3.63000000
  Sb4  0.00000000  0.00000000  -0.00800000
  Sb5  0.00000000  0.00000000  0.00800000
