# generated using pymatgen
data_Rb2Co3S4
_symmetry_space_group_name_H-M   'P 1'
_cell_length_a   5.33754424
_cell_length_b   8.88461550
_cell_length_c   8.88346803
_cell_angle_alpha   85.06377117
_cell_angle_beta   72.56377827
_cell_angle_gamma   107.46261566
_symmetry_Int_Tables_number   1
_chemical_formula_structural   Rb2Co3S4
_chemical_formula_sum   'Rb4 Co6 S8'
_cell_volume   376.15726620
_cell_formula_units_Z   2
loop_
 _symmetry_equiv_pos_site_id
 _symmetry_equiv_pos_as_xyz
  1  'x, y, z'
loop_
 _atom_site_type_symbol
 _atom_site_label
 _atom_site_symmetry_multiplicity
 _atom_site_fract_x
 _atom_site_fract_y
 _atom_site_fract_z
 _atom_site_occupancy
  Rb  Rb0  1  0.88011800  0.12469300  0.87545000  1
  Rb  Rb1  1  0.11984900  0.87538300  0.12467900  1
  Rb  Rb2  1  0.36905100  0.62441300  0.37544300  1
  Rb  Rb3  1  0.63094400  0.37547000  0.62446400  1
  Co  Co4  1  0.74828400  0.99812600  0.50145800  1
  Co  Co5  1  0.74821300  0.49847200  0.00194900  1
  Co  Co6  1  0.50000900  0.25018400  0.25015600  1
  Co  Co7  1  0.50003600  0.74987800  0.74979000  1
  Co  Co8  1  0.25178500  0.50154200  0.99806300  1
  Co  Co9  1  0.25191800  0.00207000  0.49833100  1
  S  S10  1  0.12529300  0.53570800  0.78994300  1
  S  S11  1  0.87505200  0.79021300  0.53609200  1
  S  S12  1  0.61905500  0.71000300  0.96467100  1
  S  S13  1  0.38051800  0.96430300  0.70971400  1
  S  S14  1  0.87503400  0.46387000  0.20977400  1
  S  S15  1  0.12530700  0.21000800  0.46425100  1
  S  S16  1  0.38048500  0.29029100  0.03573100  1
  S  S17  1  0.61905000  0.03536900  0.29004100  1
loop_
 _atom_site_moment_label
 _atom_site_moment_crystalaxis_x
 _atom_site_moment_crystalaxis_y
 _atom_site_moment_crystalaxis_z
  Rb0  0.00000192  -0.00000771  0.00100005
  Rb1  0.00000192  -0.00000771  0.00100005
  Rb2  0.00000192  -0.00000771  0.00100005
  Rb3  0.00000192  -0.00000771  0.00100005
  Co4  -0.00155479  0.00624736  -0.81004250
  Co5  -0.00155287  0.00623965  -0.80904245
  Co6  0.00275063  -0.01105243  1.43307519
  Co7  0.00275447  -0.01106786  1.43507530
  Co8  -0.00115745  0.00465081  -0.60303164
  Co9  -0.00126878  0.00509816  -0.66103468
  S10  0.00002687  -0.00010798  0.01400073
  S11  0.00003455  -0.00013883  0.01800094
  S12  0.00002687  -0.00010798  0.01400073
  S13  0.00003455  -0.00013883  0.01800094
  S14  0.00003839  -0.00015426  0.02000105
  S15  0.00002111  -0.00008484  0.01100058
  S16  0.00003839  -0.00015426  0.02000105
  S17  0.00002111  -0.00008484  0.01100058
