# generated using pymatgen
data_KV5S8
_symmetry_space_group_name_H-M   'P 1'
_cell_length_a   3.28835582
_cell_length_b   17.10662626
_cell_length_c   8.93403114
_cell_angle_alpha   104.17010157
_cell_angle_beta   100.59368510
_cell_angle_gamma   89.99473929
_symmetry_Int_Tables_number   1
_chemical_formula_structural   KV5S8
_chemical_formula_sum   'K2 V10 S16'
_cell_volume   478.43436718
_cell_formula_units_Z   2
loop_
 _symmetry_equiv_pos_site_id
 _symmetry_equiv_pos_as_xyz
  1  'x, y, z'
loop_
 _atom_site_type_symbol
 _atom_site_label
 _atom_site_symmetry_multiplicity
 _atom_site_fract_x
 _atom_site_fract_y
 _atom_site_fract_z
 _atom_site_occupancy
  K  K0  1  0.01622000  0.00000800  0.00001100  1
  K  K1  1  0.01618900  0.50002100  0.00005200  1
  V  V2  1  0.50253500  0.74998800  0.99999500  1
  V  V3  1  0.15119800  0.74664000  0.29558400  1
  V  V4  1  0.85651800  0.75335900  0.70440200  1
  V  V5  1  0.79436500  0.57306400  0.58185000  1
  V  V6  1  0.21306400  0.92695900  0.41820300  1
  V  V7  1  0.50253400  0.24999400  0.00004500  1
  V  V8  1  0.15134200  0.24662500  0.29549500  1
  V  V9  1  0.85650100  0.25338200  0.70452400  1
  V  V10  1  0.79434400  0.07308100  0.58179800  1
  V  V11  1  0.21268100  0.42693900  0.41813400  1
  S  S12  1  0.26390700  0.17144800  0.52011900  1
  S  S13  1  0.26397600  0.67140500  0.52008100  1
  S  S14  1  0.74344600  0.32854700  0.47983500  1
  S  S15  1  0.74346900  0.82855900  0.47988800  1
  S  S16  1  0.66542900  0.00017200  0.32272100  1
  S  S17  1  0.66530500  0.50018200  0.32272700  1
  S  S18  1  0.34258700  0.49982300  0.67722900  1
  S  S19  1  0.34255600  0.99984200  0.67726500  1
  S  S20  1  0.92887700  0.16182600  0.85227700  1
  S  S21  1  0.92893500  0.66179100  0.85231500  1
  S  S22  1  0.07644400  0.33815700  0.14772500  1
  S  S23  1  0.07641800  0.83819200  0.14767200  1
  S  S24  1  0.58927500  0.15874600  0.17003100  1
  S  S25  1  0.58916500  0.65874900  0.17007900  1
  S  S26  1  0.41931900  0.34126200  0.83000700  1
  S  S27  1  0.41940100  0.84124100  0.82993600  1
loop_
 _atom_site_moment_label
 _atom_site_moment_crystalaxis_x
 _atom_site_moment_crystalaxis_y
 _atom_site_moment_crystalaxis_z
  V2  0.00070337  -0.00112333  0.69285306
  V3  -0.00097436  0.00155613  -0.95979645
  V4  -0.00097132  0.00155126  -0.95679709
  V5  -0.00104541  0.00166959  -1.02978161
  V6  -0.00104744  0.00167284  -1.03178119
  V7  -0.00071758  0.00114602  -0.70685010
  V8  0.00097436  -0.00155613  0.95979645
  V9  0.00097639  -0.00155937  0.96179603
  V10  0.00104846  -0.00167446  1.03278098
  V11  0.00104846  -0.00167446  1.03278098
  S12  -0.00003958  0.00006322  -0.03899173
  S13  0.00003857  -0.00006160  0.03799194
  S14  -0.00003958  0.00006322  -0.03899173
  S15  0.00003857  -0.00006160  0.03799194
  S16  0.00001522  -0.00002431  0.01499682
  S17  -0.00001522  0.00002431  -0.01499682
  S18  0.00001522  -0.00002431  0.01499682
  S19  -0.00001522  0.00002431  -0.01499682
  S20  -0.00002233  0.00003566  -0.02199534
  S21  0.00002233  -0.00003566  0.02199534
  S22  -0.00002233  0.00003566  -0.02199534
  S23  0.00002233  -0.00003566  0.02199534
  S24  -0.00004263  0.00006808  -0.04199109
  S25  0.00004263  -0.00006808  0.04199109
  S26  -0.00004263  0.00006808  -0.04199109
  S27  0.00004263  -0.00006808  0.04199109
