# generated using pymatgen
data_Mg5MnSb4
_symmetry_space_group_name_H-M   'P 1'
_cell_length_a   7.82976927
_cell_length_b   15.15833807
_cell_length_c   9.16206780
_cell_angle_alpha   72.21665799
_cell_angle_beta   90.05257877
_cell_angle_gamma   90.62631850
_symmetry_Int_Tables_number   1
_chemical_formula_structural   Mg5MnSb4
_chemical_formula_sum   'Mg20 Mn4 Sb16'
_cell_volume   1035.38815901
_cell_formula_units_Z   4
loop_
 _symmetry_equiv_pos_site_id
 _symmetry_equiv_pos_as_xyz
  1  'x, y, z'
loop_
 _atom_site_type_symbol
 _atom_site_label
 _atom_site_symmetry_multiplicity
 _atom_site_fract_x
 _atom_site_fract_y
 _atom_site_fract_z
 _atom_site_occupancy
  Mg  Mg0  1  0.16693900  0.00253100  0.74857500  1
  Mg  Mg1  1  0.16693300  0.00253100  0.24858600  1
  Mg  Mg2  1  0.66697100  0.00252300  0.49882700  1
  Mg  Mg3  1  0.66696500  0.00252100  0.99883300  1
  Mg  Mg4  1  0.16705900  0.49596200  0.50220600  1
  Mg  Mg5  1  0.16709300  0.49595400  0.00220500  1
  Mg  Mg6  1  0.66718800  0.49597400  0.25184500  1
  Mg  Mg7  1  0.66717900  0.49597500  0.75184300  1
  Mg  Mg8  1  0.49903300  0.81578800  0.34246700  1
  Mg  Mg9  1  0.49903400  0.81578600  0.84246600  1
  Mg  Mg10  1  0.99904400  0.81566900  0.09238800  1
  Mg  Mg11  1  0.99904500  0.81566900  0.59239000  1
  Mg  Mg12  1  0.33434700  0.18729400  0.40644500  1
  Mg  Mg13  1  0.33433100  0.18731200  0.90642900  1
  Mg  Mg14  1  0.83430800  0.18734900  0.15597400  1
  Mg  Mg15  1  0.83430200  0.18735200  0.65599000  1
  Mg  Mg16  1  0.33407200  0.68394700  0.15762500  1
  Mg  Mg17  1  0.33407100  0.68394800  0.65762300  1
  Mg  Mg18  1  0.83415600  0.68395200  0.90752100  1
  Mg  Mg19  1  0.83415800  0.68395200  0.40752300  1
  Mn  Mn20  1  0.49707600  0.31410000  0.09136300  1
  Mn  Mn21  1  0.99748700  0.31396100  0.34487600  1
  Mn  Mn22  1  0.49708800  0.31411200  0.59136400  1
  Mn  Mn23  1  0.99747500  0.31397300  0.84487800  1
  Sb  Sb24  1  0.49627400  0.11756400  0.69189100  1
  Sb  Sb25  1  0.49626500  0.11755300  0.19187600  1
  Sb  Sb26  1  0.99609700  0.11759200  0.44159300  1
  Sb  Sb27  1  0.99611100  0.11758500  0.94158700  1
  Sb  Sb28  1  0.49588700  0.61027200  0.44500100  1
  Sb  Sb29  1  0.49588800  0.61027100  0.94500100  1
  Sb  Sb30  1  0.99587900  0.61018500  0.19477700  1
  Sb  Sb31  1  0.99587900  0.61018500  0.69478000  1
  Sb  Sb32  1  0.33848600  0.38323700  0.30916000  1
  Sb  Sb33  1  0.33848400  0.38324800  0.80915700  1
  Sb  Sb34  1  0.83863000  0.38313500  0.05763600  1
  Sb  Sb35  1  0.83863600  0.38313800  0.55762800  1
  Sb  Sb36  1  0.33708100  0.88952000  0.05502900  1
  Sb  Sb37  1  0.33708100  0.88952400  0.55503200  1
  Sb  Sb38  1  0.83731300  0.88942800  0.80480700  1
  Sb  Sb39  1  0.83731900  0.88942700  0.30480900  1
loop_
 _atom_site_moment_label
 _atom_site_moment_crystalaxis_x
 _atom_site_moment_crystalaxis_y
 _atom_site_moment_crystalaxis_z
  Mg0  0.00000557  0.00105023  -0.00031908
  Mg1  -0.00000557  -0.00105023  0.00031908
  Mg2  -0.00000557  -0.00105023  0.00031908
  Mg3  0.00000557  0.00105023  -0.00031908
  Mg4  -0.00000557  -0.00105023  0.00031908
  Mg5  0.00000557  0.00105023  -0.00031908
  Mg6  0.00000557  0.00105023  -0.00031908
  Mg7  -0.00000557  -0.00105023  0.00031908
  Mg8  -0.00000557  -0.00105023  0.00031908
  Mg9  0.00000557  0.00105023  -0.00031908
  Mg10  0.00000557  0.00105023  -0.00031908
  Mg11  -0.00000557  -0.00105023  0.00031908
  Mg12  0.00000557  0.00105023  -0.00031908
  Mg13  -0.00000557  -0.00105023  0.00031908
  Mg14  0.00000557  0.00105023  -0.00031908
  Mg15  -0.00000557  -0.00105023  0.00031908
  Mg18  0.00000557  0.00105023  -0.00031908
  Mg19  -0.00000557  -0.00105023  0.00031908
  Mn20  -0.02221846  -4.18830570  1.27248672
  Mn21  -0.02220731  -4.18620525  1.27184856
  Mn22  0.02221846  4.18830570  -1.27248672
  Mn23  0.02220731  4.18620525  -1.27184856
  Sb24  0.00002786  0.00525114  -0.00159539
  Sb25  -0.00002786  -0.00525114  0.00159539
  Sb26  -0.00002786  -0.00525114  0.00159539
  Sb27  0.00002786  0.00525114  -0.00159539
  Sb28  -0.00001671  -0.00315068  0.00095724
  Sb29  0.00001671  0.00315068  -0.00095724
  Sb30  0.00001114  0.00210045  -0.00063816
  Sb31  -0.00001114  -0.00210045  0.00063816
  Sb32  -0.00001671  -0.00315068  0.00095724
  Sb33  0.00001671  0.00315068  -0.00095724
  Sb34  -0.00003343  -0.00630136  0.00191447
  Sb35  0.00003343  0.00630136  -0.00191447
  Sb36  0.00003343  0.00630136  -0.00191447
  Sb37  -0.00003343  -0.00630136  0.00191447
  Sb38  0.00001114  0.00210045  -0.00063816
  Sb39  -0.00001114  -0.00210045  0.00063816
