# generated using pymatgen
data_Cr2Se3
_symmetry_space_group_name_H-M   'P 1'
_cell_length_a   6.30996678
_cell_length_b   11.62550200
_cell_length_c   6.31016500
_cell_angle_alpha   89.99998367
_cell_angle_beta   119.99807553
_cell_angle_gamma   90.00099633
_symmetry_Int_Tables_number   1
_chemical_formula_structural   Cr2Se3
_chemical_formula_sum   'Cr8 Se12'
_cell_volume   400.88384644
_cell_formula_units_Z   4
loop_
 _symmetry_equiv_pos_site_id
 _symmetry_equiv_pos_as_xyz
  1  'x, y, z'
loop_
 _atom_site_type_symbol
 _atom_site_label
 _atom_site_symmetry_multiplicity
 _atom_site_fract_x
 _atom_site_fract_y
 _atom_site_fract_z
 _atom_site_occupancy
  Cr  Cr0  1  0.33319800  0.74435700  0.66659000  1
  Cr  Cr1  1  0.66683700  0.25565400  0.33344700  1
  Cr  Cr2  1  0.99999100  0.00000000  0.99999800  1
  Cr  Cr3  1  0.99999700  0.50000800  0.00000400  1
  Cr  Cr4  1  0.66662900  0.50261300  0.33330900  1
  Cr  Cr5  1  0.33336500  0.49739200  0.66668400  1
  Cr  Cr6  1  0.33330500  0.01283500  0.66670000  1
  Cr  Cr7  1  0.66669700  0.98716000  0.33328300  1
  Se  Se8  1  0.66484200  0.62179600  0.66751600  1
  Se  Se9  1  0.33241900  0.62181600  0.99727000  1
  Se  Se10  1  0.00266900  0.62179500  0.33509200  1
  Se  Se11  1  0.34137000  0.12089100  0.01512600  1
  Se  Se12  1  0.98487000  0.12084400  0.32622300  1
  Se  Se13  1  0.67383200  0.12085200  0.65863600  1
  Se  Se14  1  0.33515800  0.37819900  0.33249200  1
  Se  Se15  1  0.66755900  0.37817200  0.00271400  1
  Se  Se16  1  0.99731900  0.37820600  0.66492000  1
  Se  Se17  1  0.65865100  0.87910600  0.98487900  1
  Se  Se18  1  0.01511800  0.87915500  0.67376200  1
  Se  Se19  1  0.32617200  0.87915000  0.34135400  1
loop_
 _atom_site_moment_label
 _atom_site_moment_crystalaxis_x
 _atom_site_moment_crystalaxis_y
 _atom_site_moment_crystalaxis_z
  Cr0  0.00003038  2.88600000  0.00001345
  Cr1  0.00003038  2.88600000  0.00001345
  Cr2  0.00003092  2.93700000  0.00001369
  Cr3  0.00002965  2.81600000  0.00001313
  Cr4  -0.00002848  -2.70500000  -0.00001261
  Cr5  -0.00002848  -2.70500000  -0.00001261
  Cr6  0.00003135  2.97800000  0.00001388
  Cr7  0.00003135  2.97800000  0.00001388
  Se8  -0.00000014  -0.01300000  -0.00000006
  Se9  -0.00000014  -0.01300000  -0.00000006
  Se10  -0.00000014  -0.01300000  -0.00000006
  Se11  -0.00000121  -0.11500000  -0.00000054
  Se12  -0.00000121  -0.11500000  -0.00000054
  Se13  -0.00000121  -0.11500000  -0.00000054
  Se14  -0.00000014  -0.01300000  -0.00000006
  Se15  -0.00000014  -0.01300000  -0.00000006
  Se16  -0.00000014  -0.01300000  -0.00000006
  Se17  -0.00000121  -0.11500000  -0.00000054
  Se18  -0.00000121  -0.11500000  -0.00000054
  Se19  -0.00000121  -0.11500000  -0.00000054
