# generated using pymatgen
data_Li6FeS4
_symmetry_space_group_name_H-M   'P 1'
_cell_length_a   7.36957930
_cell_length_b   7.44475763
_cell_length_c   7.36965978
_cell_angle_alpha   104.16679672
_cell_angle_beta   66.14466592
_cell_angle_gamma   75.83428445
_symmetry_Int_Tables_number   1
_chemical_formula_structural   Li6FeS4
_chemical_formula_sum   'Li12 Fe2 S8'
_cell_volume   330.51668916
_cell_formula_units_Z   2
loop_
 _symmetry_equiv_pos_site_id
 _symmetry_equiv_pos_as_xyz
  1  'x, y, z'
loop_
 _atom_site_type_symbol
 _atom_site_label
 _atom_site_symmetry_multiplicity
 _atom_site_fract_x
 _atom_site_fract_y
 _atom_site_fract_z
 _atom_site_occupancy
  Li  Li0  1  0.42343600  0.35263900  0.82350300  1
  Li  Li1  1  0.42342100  0.85263100  0.82341100  1
  Li  Li2  1  0.17649400  0.35264400  0.57656600  1
  Li  Li3  1  0.17658900  0.85263500  0.57657800  1
  Li  Li4  1  0.83509800  0.26275000  0.89660600  1
  Li  Li5  1  0.83508900  0.76272900  0.89662700  1
  Li  Li6  1  0.10338900  0.26275300  0.16490700  1
  Li  Li7  1  0.10336500  0.76273100  0.16491500  1
  Li  Li8  1  0.38225900  0.46387100  0.23512500  1
  Li  Li9  1  0.38220500  0.96388500  0.23513200  1
  Li  Li10  1  0.76487200  0.96388300  0.61779400  1
  Li  Li11  1  0.76487900  0.46386900  0.61773900  1
  Fe  Fe12  1  0.72138000  0.14044900  0.27861500  1
  Fe  Fe13  1  0.72143200  0.64039800  0.27856200  1
  S  S14  1  0.03641000  0.48001000  0.96358800  1
  S  S15  1  0.03661300  0.97984900  0.96338500  1
  S  S16  1  0.52576300  0.98061400  0.47424100  1
  S  S17  1  0.52578000  0.48087100  0.47422400  1
  S  S18  1  0.51525100  0.12491400  0.00332500  1
  S  S19  1  0.51531400  0.62488900  0.00335500  1
  S  S20  1  0.99667800  0.12491400  0.48475000  1
  S  S21  1  0.99664800  0.62488900  0.48468700  1
loop_
 _atom_site_moment_label
 _atom_site_moment_crystalaxis_x
 _atom_site_moment_crystalaxis_y
 _atom_site_moment_crystalaxis_z
  Li0  0.00002829  0.00099153  0.00197932
  Li1  -0.00002829  -0.00099153  -0.00197932
  Li2  0.00002829  0.00099153  0.00197932
  Li3  -0.00002829  -0.00099153  -0.00197932
  Fe12  -0.04405437  -1.54380676  -3.08179518
  Fe13  0.04402607  1.54281523  3.07981587
  S14  0.00117422  0.04114835  0.08214162
  S15  -0.00117422  -0.04114835  -0.08214162
  S16  0.00019806  0.00694069  0.01385521
  S17  -0.00018391  -0.00644492  -0.01286555
  S18  -0.00049515  -0.01735171  -0.03463803
  S19  0.00049515  0.01735171  0.03463803
  S20  -0.00049515  -0.01735171  -0.03463803
  S21  0.00049515  0.01735171  0.03463803
