# generated using pymatgen
data_Ca2MnSi2
_symmetry_space_group_name_H-M   'P 1'
_cell_length_a   6.24551226
_cell_length_b   15.53132890
_cell_length_c   12.65791635
_cell_angle_alpha   65.95471988
_cell_angle_beta   90.02701570
_cell_angle_gamma   89.99421763
_symmetry_Int_Tables_number   1
_chemical_formula_structural   Ca2MnSi2
_chemical_formula_sum   'Ca4 Mn2 Si4'
_cell_volume   1121.28502550
_cell_formula_units_Z   2
loop_
 _symmetry_equiv_pos_site_id
 _symmetry_equiv_pos_as_xyz
  1  'x, y, z'
loop_
 _atom_site_type_symbol
 _atom_site_label
 _atom_site_symmetry_multiplicity
 _atom_site_fract_x
 _atom_site_fract_y
 _atom_site_fract_z
 _atom_site_occupancy
  Ca  Ca0  1  0.50000400  0.63664000  0.93166700  1
  Ca  Ca1  1  0.49999600  0.63478900  0.43258400  1
  Ca  Ca2  1  0.49999400  0.36436300  0.06785000  1
  Ca  Ca3  1  0.49999600  0.36248900  0.56875500  1
  Mn  Mn4  1  0.50000200  0.00025700  0.24986300  1
  Mn  Mn5  1  0.50001800  0.99740700  0.75132200  1
  Si  Si6  1  0.50000300  0.16569700  0.16709400  1
  Si  Si7  1  0.50000300  0.16826000  0.66578100  1
  Si  Si8  1  0.49998200  0.83611000  0.83199600  1
  Si  Si9  1  0.50000200  0.83398800  0.33308900  1
loop_
 _atom_site_moment_label
 _atom_site_moment_crystalaxis_x
 _atom_site_moment_crystalaxis_y
 _atom_site_moment_crystalaxis_z
  Ca0  0.00000799  -0.05584612  0.02275588
  Ca1  -0.00000846  0.05913119  -0.02409446
  Ca2  -0.00000877  0.06132123  -0.02498685
  Ca3  0.00001049  -0.07336647  0.02989498
  Mn4  0.00061833  -4.32314668  1.76157293
  Mn5  -0.00061818  4.32205165  -1.76112673
  Si6  -0.00005999  0.41939341  -0.17089221
  Si7  0.00006092  -0.42596354  0.17356937
  Si8  0.00005889  -0.41172825  0.16776885
  Si9  -0.00006014  0.42048843  -0.17133840
