# generated using pymatgen
data_Cs(MnP)2
_symmetry_space_group_name_H-M   'P 1'
_cell_length_a   3.82261178
_cell_length_b   3.82261177
_cell_length_c   14.79621349
_cell_angle_alpha   89.99999417
_cell_angle_beta   89.99999410
_cell_angle_gamma   90.00000443
_symmetry_Int_Tables_number   1
_chemical_formula_structural   Cs(MnP)2
_chemical_formula_sum   'Cs2 Mn4 P4'
_cell_volume   216.20760965
_cell_formula_units_Z   2
loop_
 _symmetry_equiv_pos_site_id
 _symmetry_equiv_pos_as_xyz
  1  'x, y, z'
loop_
 _atom_site_type_symbol
 _atom_site_label
 _atom_site_symmetry_multiplicity
 _atom_site_fract_x
 _atom_site_fract_y
 _atom_site_fract_z
 _atom_site_occupancy
  Cs  Cs0  1  0.00000000  0.00000000  0.00000000  1
  Cs  Cs1  1  0.50000000  0.50000000  0.50000000  1
  Mn  Mn2  1  0.50000000  0.00000000  0.75000000  1
  Mn  Mn3  1  0.00000000  0.50000000  0.75000000  1
  Mn  Mn4  1  0.00000000  0.50000000  0.25000000  1
  Mn  Mn5  1  0.50000000  0.00000000  0.25000000  1
  P  P6  1  0.50000000  0.50000000  0.16658900  1
  P  P7  1  0.00000000  0.00000000  0.66658900  1
  P  P8  1  0.00000000  0.00000000  0.33341100  1
  P  P9  1  0.50000000  0.50000000  0.83341100  1
loop_
 _atom_site_moment_label
 _atom_site_moment_crystalaxis_x
 _atom_site_moment_crystalaxis_y
 _atom_site_moment_crystalaxis_z
  Mn2  0.45135026  0.45135026  -1.74704500
  Mn3  0.45062228  0.45062227  -1.74422719
  Mn4  -0.45110760  -0.45110760  1.74610573
  Mn5  -0.45086494  -0.45086494  1.74516646
  P6  0.02378082  0.02378082  -0.09204861
  P7  -0.02353816  -0.02353816  0.09110934
  P8  0.02378082  0.02378082  -0.09204861
  P9  -0.02353816  -0.02353816  0.09110934
