# generated using pymatgen
data_LiVBi
_symmetry_space_group_name_H-M   'P 1'
_cell_length_a   4.51101023
_cell_length_b   4.50763660
_cell_length_c   7.50566208
_cell_angle_alpha   89.99910613
_cell_angle_beta   72.51400274
_cell_angle_gamma   60.02397456
_symmetry_Int_Tables_number   1
_chemical_formula_structural   LiVBi
_chemical_formula_sum   'Li2 V2 Bi2'
_cell_volume   123.99695809
_cell_formula_units_Z   2
loop_
 _symmetry_equiv_pos_site_id
 _symmetry_equiv_pos_as_xyz
  1  'x, y, z'
loop_
 _atom_site_type_symbol
 _atom_site_label
 _atom_site_symmetry_multiplicity
 _atom_site_fract_x
 _atom_site_fract_y
 _atom_site_fract_z
 _atom_site_occupancy
  Li  Li0  1  0.75092900  0.12453300  0.37355900  1
  Li  Li1  1  0.75084100  0.62457600  0.87368400  1
  V  V2  1  0.49329800  0.25335300  0.75975700  1
  V  V3  1  0.49198200  0.75401300  0.26171400  1
  Bi  Bi4  1  0.00652400  0.99674100  0.99057600  1
  Bi  Bi5  1  0.00642600  0.49678400  0.49071000  1
loop_
 _atom_site_moment_label
 _atom_site_moment_crystalaxis_x
 _atom_site_moment_crystalaxis_y
 _atom_site_moment_crystalaxis_z
  Li0  -0.00006184  0.00203086  0.00348231
  Li1  0.00006184  -0.00203086  -0.00348231
  V2  0.04185186  -1.37438763  -2.35665131
  V3  -0.04183640  1.37387991  2.35578073
  Bi4  -0.00024737  0.00812346  0.01392923
  Bi5  0.00024737  -0.00812346  -0.01392923
