# generated using pymatgen
data_MgVS3
_symmetry_space_group_name_H-M   'P 1'
_cell_length_a   5.99169730
_cell_length_b   11.78270104
_cell_length_c   7.02815865
_cell_angle_alpha   86.51869261
_cell_angle_beta   64.92862175
_cell_angle_gamma   75.35750347
_symmetry_Int_Tables_number   1
_chemical_formula_structural   MgVS3
_chemical_formula_sum   'Mg4 V4 S12'
_cell_volume   434.22084447
_cell_formula_units_Z   4
loop_
 _symmetry_equiv_pos_site_id
 _symmetry_equiv_pos_as_xyz
  1  'x, y, z'
loop_
 _atom_site_type_symbol
 _atom_site_label
 _atom_site_symmetry_multiplicity
 _atom_site_fract_x
 _atom_site_fract_y
 _atom_site_fract_z
 _atom_site_occupancy
  Mg  Mg0  1  0.96975700  0.71299000  0.13820900  1
  Mg  Mg1  1  0.96972500  0.21304200  0.63820500  1
  Mg  Mg2  1  0.32433100  0.28558100  0.85748400  1
  Mg  Mg3  1  0.32438000  0.78549800  0.35743100  1
  V  V4  1  0.56912000  0.96812300  0.90387500  1
  V  V5  1  0.94909100  0.02895900  0.08740700  1
  V  V6  1  0.56895200  0.46817400  0.40400800  1
  V  V7  1  0.94898900  0.52897000  0.58746800  1
  S  S8  1  0.89587000  0.38131500  0.14597700  1
  S  S9  1  0.89618900  0.88125200  0.64564200  1
  S  S10  1  0.94152400  0.61490900  0.84255400  1
  S  S11  1  0.94139300  0.11487800  0.34244900  1
  S  S12  1  0.64563900  0.14603500  0.97044700  1
  S  S13  1  0.64563400  0.64606400  0.47042500  1
  S  S14  1  0.64515600  0.41205600  0.70487600  1
  S  S15  1  0.64519100  0.91204900  0.20486500  1
  S  S16  1  0.26740500  0.85069900  0.02128900  1
  S  S17  1  0.26742900  0.35073700  0.52147800  1
  S  S18  1  0.26739600  0.58545200  0.28635900  1
  S  S19  1  0.26738900  0.08542900  0.78618600  1
loop_
 _atom_site_moment_label
 _atom_site_moment_crystalaxis_x
 _atom_site_moment_crystalaxis_y
 _atom_site_moment_crystalaxis_z
  V4  0.56990266  -0.00335216  0.66202895
  V5  0.56497081  -0.00332315  0.65629985
  V6  -0.56771073  0.00333927  -0.65948268
  V7  -0.56716275  0.00333605  -0.65884612
  S8  0.04822253  -0.00028364  0.05601783
  S9  -0.04822253  0.00028364  -0.05601783
  S10  0.04822253  -0.00028364  0.05601783
  S11  -0.04822253  0.00028364  -0.05601783
  S12  -0.01643950  0.00009670  -0.01909699
  S13  0.01643950  -0.00009670  0.01909699
  S14  0.01698748  -0.00009992  0.01973356
  S15  -0.01698748  0.00009992  -0.01973356
  S16  -0.01643950  0.00009670  -0.01909699
  S17  0.01643950  -0.00009670  0.01909699
  S18  0.01698748  -0.00009992  0.01973356
  S19  -0.01698748  0.00009992  -0.01973356
