# generated using pymatgen
data_K2MnP2
_symmetry_space_group_name_H-M   'P 1'
_cell_length_a   7.76844300
_cell_length_b   12.98433705
_cell_length_c   8.69253202
_cell_angle_alpha   57.46147981
_cell_angle_beta   116.53923052
_cell_angle_gamma   114.45488666
_symmetry_Int_Tables_number   1
_chemical_formula_structural   K2MnP2
_chemical_formula_sum   'K8 Mn4 P8'
_cell_volume   643.51358954
_cell_formula_units_Z   4
loop_
 _symmetry_equiv_pos_site_id
 _symmetry_equiv_pos_as_xyz
  1  'x, y, z'
loop_
 _atom_site_type_symbol
 _atom_site_label
 _atom_site_symmetry_multiplicity
 _atom_site_fract_x
 _atom_site_fract_y
 _atom_site_fract_z
 _atom_site_occupancy
  K  K0  1  0.18796800  0.80213200  0.13725200  1
  K  K1  1  0.37367900  0.65827200  0.71957100  1
  K  K2  1  0.68433600  0.80072900  0.13106600  1
  K  K3  1  0.87303000  0.66052100  0.72120900  1
  K  K4  1  0.12275000  0.33937400  0.27845500  1
  K  K5  1  0.31589700  0.20080500  0.86815500  1
  K  K6  1  0.63040800  0.34125200  0.28081400  1
  K  K7  1  0.81051400  0.19724800  0.86313700  1
  Mn  Mn8  1  0.43737700  0.99980600  0.37751000  1
  Mn  Mn9  1  0.07332000  0.00103400  0.64032500  1
  Mn  Mn10  1  0.55873100  0.00022100  0.62173800  1
  Mn  Mn11  1  0.93286200  0.99898300  0.36090400  1
  P  P12  1  0.22127500  0.12619600  0.26218900  1
  P  P13  1  0.37110300  0.12876900  0.56157100  1
  P  P14  1  0.71210700  0.11942200  0.26332400  1
  P  P15  1  0.86692100  0.12152700  0.57147400  1
  P  P16  1  0.13260700  0.87194300  0.43694100  1
  P  P17  1  0.28358400  0.87346700  0.73797100  1
  P  P18  1  0.62921500  0.87771100  0.43053900  1
  P  P19  1  0.78231600  0.88058700  0.73585700  1
loop_
 _atom_site_moment_label
 _atom_site_moment_crystalaxis_x
 _atom_site_moment_crystalaxis_y
 _atom_site_moment_crystalaxis_z
  K0  0.00040462  0.00458453  -0.00102976
  K1  -0.00010116  -0.00114613  0.00025744
  K2  0.00020231  0.00229226  -0.00051488
  K3  -0.00010116  -0.00114613  0.00025744
  K4  0.00010116  0.00114613  -0.00025744
  K5  -0.00020231  -0.00229226  0.00051488
  K6  0.00010116  0.00114613  -0.00025744
  K7  -0.00040462  -0.00458453  0.00102976
  Mn8  -0.00171964  -0.01948424  0.00437649
  Mn9  -0.25824967  -2.92607433  0.65724522
  Mn10  0.00242773  0.02750716  -0.00617857
  Mn11  0.25794620  2.92263594  -0.65647290
  P12  -0.00283235  -0.03209169  0.00720833
  P13  0.00313582  0.03553008  -0.00798065
  P14  -0.00232657  -0.02636103  0.00592113
  P15  0.00283235  0.03209169  -0.00720833
  P16  -0.00323697  -0.03667622  0.00823809
  P17  0.00283235  0.03209169  -0.00720833
  P18  -0.00273120  -0.03094556  0.00695089
  P19  0.00232657  0.02636103  -0.00592113
