# generated using pymatgen
data_Li(CrS2)2
_symmetry_space_group_name_H-M   'P 1'
_cell_length_a   5.76067417
_cell_length_b   6.73247801
_cell_length_c   7.06995385
_cell_angle_alpha   61.56608089
_cell_angle_beta   89.52258211
_cell_angle_gamma   89.99454459
_symmetry_Int_Tables_number   1
_chemical_formula_structural   Li(CrS2)2
_chemical_formula_sum   'Li2 Cr4 S8'
_cell_volume   241.11022916
_cell_formula_units_Z   2
loop_
 _symmetry_equiv_pos_site_id
 _symmetry_equiv_pos_as_xyz
  1  'x, y, z'
loop_
 _atom_site_type_symbol
 _atom_site_label
 _atom_site_symmetry_multiplicity
 _atom_site_fract_x
 _atom_site_fract_y
 _atom_site_fract_z
 _atom_site_occupancy
  Li  Li0  1  0.51567500  0.24591600  0.50821500  1
  Li  Li1  1  0.48432300  0.75407200  0.49178600  1
  Cr  Cr2  1  0.50000100  0.49998700  0.00000400  1
  Cr  Cr3  1  0.99993000  0.27278700  0.99998900  1
  Cr  Cr4  1  0.00006700  0.72729800  0.00001200  1
  Cr  Cr5  1  0.49999700  0.99998800  0.00000100  1
  S  S6  1  0.84331700  0.10127500  0.79744200  1
  S  S7  1  0.83466100  0.61666800  0.76669700  1
  S  S8  1  0.16534100  0.38329900  0.23330200  1
  S  S9  1  0.15668000  0.89871400  0.20255900  1
  S  S10  1  0.33568800  0.86177200  0.77562600  1
  S  S11  1  0.33562600  0.36261700  0.77566400  1
  S  S12  1  0.66432700  0.13823500  0.22434200  1
  S  S13  1  0.66436600  0.63736900  0.22435900  1
loop_
 _atom_site_moment_label
 _atom_site_moment_crystalaxis_x
 _atom_site_moment_crystalaxis_y
 _atom_site_moment_crystalaxis_z
  Cr2  0.02531977  1.36290788  -2.86241319
  Cr3  -0.02362978  -1.27193906  2.67135820
  Cr4  -0.02362978  -1.27193906  2.67135820
  Cr5  -0.02556120  -1.37590343  2.88970676
  S6  0.00121720  0.06551921  -0.13760508
  S7  0.00093553  0.05035774  -0.10576259
  S8  0.00093553  0.05035774  -0.10576259
  S9  0.00121720  0.06551921  -0.13760508
  S10  0.00069411  0.03736219  -0.07846901
  S11  0.00069411  0.03736219  -0.07846901
  S12  0.00069411  0.03736219  -0.07846901
  S13  0.00069411  0.03736219  -0.07846901
