# generated using pymatgen
data_Na(VSe2)2
_symmetry_space_group_name_H-M   'P 1'
_cell_length_a   3.62438959
_cell_length_b   3.62438984
_cell_length_c   14.57963300
_cell_angle_alpha   82.85988412
_cell_angle_beta   82.85988361
_cell_angle_gamma   60.00000386
_symmetry_Int_Tables_number   1
_chemical_formula_structural   Na(VSe2)2
_chemical_formula_sum   'Na1 V2 Se4'
_cell_volume   164.14482703
_cell_formula_units_Z   1
loop_
 _symmetry_equiv_pos_site_id
 _symmetry_equiv_pos_as_xyz
  1  'x, y, z'
loop_
 _atom_site_type_symbol
 _atom_site_label
 _atom_site_symmetry_multiplicity
 _atom_site_fract_x
 _atom_site_fract_y
 _atom_site_fract_z
 _atom_site_occupancy
  Na  Na0  1  0.08312500  0.08312500  0.75062500  1
  V  V1  1  0.99856200  0.99856200  0.00431400  1
  V  V2  1  0.50120500  0.50120500  0.49638500  1
  Se  Se3  1  0.79935100  0.79935100  0.60194700  1
  Se  Se4  1  0.29962100  0.29962100  0.10113700  1
  Se  Se5  1  0.70048300  0.70048300  0.89855100  1
  Se  Se6  1  0.20020300  0.20020300  0.39939100  1
loop_
 _atom_site_moment_label
 _atom_site_moment_crystalaxis_x
 _atom_site_moment_crystalaxis_y
 _atom_site_moment_crystalaxis_z
  Na0  0.00000000  0.00000000  0.00100000
  V1  0.00000000  0.00000000  1.59600000
  V2  0.00000000  0.00000000  1.63800000
  Se3  0.00000000  0.00000000  -0.11300000
  Se4  0.00000000  0.00000000  -0.12200000
  Se5  0.00000000  0.00000000  -0.11400000
  Se6  0.00000000  0.00000000  -0.12300000
