# generated using pymatgen
data_Mg14CoSn
_symmetry_space_group_name_H-M   'P 1'
_cell_length_a   6.29772626
_cell_length_b   21.25340254
_cell_length_c   10.85480400
_cell_angle_alpha   74.28086581
_cell_angle_beta   89.71712295
_cell_angle_gamma   81.24964719
_symmetry_Int_Tables_number   1
_chemical_formula_structural   Mg14CoSn
_chemical_formula_sum   'Mg56 Co4 Sn4'
_cell_volume   1381.27496007
_cell_formula_units_Z   4
loop_
 _symmetry_equiv_pos_site_id
 _symmetry_equiv_pos_as_xyz
  1  'x, y, z'
loop_
 _atom_site_type_symbol
 _atom_site_label
 _atom_site_symmetry_multiplicity
 _atom_site_fract_x
 _atom_site_fract_y
 _atom_site_fract_z
 _atom_site_occupancy
  Mg  Mg0  1  0.56320700  0.87382500  0.23004200  1
  Mg  Mg1  1  0.31316400  0.37388700  0.98002300  1
  Mg  Mg2  1  0.06321400  0.87381200  0.73007500  1
  Mg  Mg3  1  0.81318600  0.37388200  0.48002900  1
  Mg  Mg4  1  0.68741700  0.62596000  0.35381400  1
  Mg  Mg5  1  0.43739100  0.12600000  0.10381000  1
  Mg  Mg6  1  0.18741900  0.62595000  0.85385700  1
  Mg  Mg7  1  0.93737200  0.12600300  0.60384000  1
  Mg  Mg8  1  0.50356600  0.50005600  0.49844400  1
  Mg  Mg9  1  0.25363900  0.00006800  0.24837500  1
  Mg  Mg10  1  0.00361900  0.50005600  0.99845100  1
  Mg  Mg11  1  0.75375500  0.00007100  0.74862800  1
  Mg  Mg12  1  0.99507900  0.50017400  0.49850200  1
  Mg  Mg13  1  0.74515700  0.00018300  0.24834500  1
  Mg  Mg14  1  0.49508500  0.50017000  0.99848200  1
  Mg  Mg15  1  0.24504300  0.00017900  0.74861300  1
  Mg  Mg16  1  0.74948300  0.49981800  0.25270000  1
  Mg  Mg17  1  0.49955800  0.99981700  0.00271400  1
  Mg  Mg18  1  0.24949400  0.49981700  0.75272000  1
  Mg  Mg19  1  0.99955200  0.99982600  0.50271800  1
  Mg  Mg20  1  0.37329500  0.74975800  0.37575500  1
  Mg  Mg21  1  0.12333000  0.24980100  0.12571000  1
  Mg  Mg22  1  0.87330900  0.74975700  0.87574700  1
  Mg  Mg23  1  0.62333000  0.24980600  0.62573700  1
  Mg  Mg24  1  0.87651000  0.74990700  0.37565100  1
  Mg  Mg25  1  0.62646200  0.24995300  0.12561500  1
  Mg  Mg26  1  0.37650900  0.74989900  0.87565100  1
  Mg  Mg27  1  0.12644600  0.24994900  0.62563400  1
  Mg  Mg28  1  0.12469900  0.75004600  0.62375000  1
  Mg  Mg29  1  0.87467400  0.25010000  0.37376100  1
  Mg  Mg30  1  0.62467200  0.75005200  0.12371700  1
  Mg  Mg31  1  0.37467500  0.25008800  0.87375000  1
  Mg  Mg32  1  0.05835000  0.88369500  0.21974000  1
  Mg  Mg33  1  0.80835400  0.38372900  0.96973300  1
  Mg  Mg34  1  0.55840600  0.88358800  0.71994600  1
  Mg  Mg35  1  0.30835400  0.38369600  0.46978000  1
  Mg  Mg36  1  0.19135100  0.61714400  0.35258100  1
  Mg  Mg37  1  0.94142900  0.11713600  0.10258500  1
  Mg  Mg38  1  0.69139700  0.61712200  0.85261100  1
  Mg  Mg39  1  0.44138700  0.11722500  0.60268200  1
  Mg  Mg40  1  0.31736400  0.88282800  0.47831200  1
  Mg  Mg41  1  0.06748100  0.38296600  0.22828700  1
  Mg  Mg42  1  0.81749200  0.88296400  0.97829800  1
  Mg  Mg43  1  0.56747300  0.38300200  0.72829000  1
  Mg  Mg44  1  0.44985800  0.61660100  0.61116300  1
  Mg  Mg45  1  0.19954700  0.11676300  0.36097400  1
  Mg  Mg46  1  0.94977300  0.61663700  0.11111200  1
  Mg  Mg47  1  0.69978700  0.11662300  0.86113100  1
  Mg  Mg48  1  0.80123200  0.88298000  0.47794200  1
  Mg  Mg49  1  0.55109100  0.38305700  0.22794200  1
  Mg  Mg50  1  0.30101900  0.88309400  0.97794400  1
  Mg  Mg51  1  0.05108000  0.38309700  0.72794800  1
  Mg  Mg52  1  0.93354600  0.61680000  0.61097900  1
  Mg  Mg53  1  0.68368500  0.11692400  0.36084400  1
  Mg  Mg54  1  0.43356500  0.61683200  0.11095100  1
  Mg  Mg55  1  0.18356500  0.11679100  0.86099800  1
  Co  Co56  1  0.50000600  0.99988800  0.49912000  1
  Co  Co57  1  0.25001200  0.49999400  0.24923500  1
  Co  Co58  1  0.75000200  0.49999000  0.74922900  1
  Co  Co59  1  0.99994900  0.99990100  0.99915300  1
  Sn  Sn60  1  0.62508500  0.75001600  0.62480100  1
  Sn  Sn61  1  0.37502200  0.25008900  0.37479400  1
  Sn  Sn62  1  0.12499200  0.75008000  0.12477600  1
  Sn  Sn63  1  0.87502500  0.25007700  0.87479500  1
loop_
 _atom_site_moment_label
 _atom_site_moment_crystalaxis_x
 _atom_site_moment_crystalaxis_y
 _atom_site_moment_crystalaxis_z
  Mg2  -0.00015723  0.00105181  -0.00027645
  Mg3  -0.00015723  0.00105181  -0.00027645
  Mg7  -0.00015723  0.00105181  -0.00027645
  Mg8  0.00047168  -0.00315542  0.00082934
  Mg9  -0.00015723  0.00105181  -0.00027645
  Mg10  0.00062891  -0.00420722  0.00110578
  Mg11  -0.00015723  0.00105181  -0.00027645
  Mg12  0.00062891  -0.00420722  0.00110578
  Mg13  -0.00015723  0.00105181  -0.00027645
  Mg14  0.00062891  -0.00420722  0.00110578
  Mg15  -0.00015723  0.00105181  -0.00027645
  Mg16  0.00031446  -0.00210361  0.00055289
  Mg17  -0.00015723  0.00105181  -0.00027645
  Mg18  0.00031446  -0.00210361  0.00055289
  Mg26  0.00015723  -0.00105181  0.00027645
  Mg28  0.00015723  -0.00105181  0.00027645
  Mg29  0.00015723  -0.00105181  0.00027645
  Mg32  -0.00047168  0.00315542  -0.00082934
  Mg33  0.00062891  -0.00420722  0.00110578
  Mg35  0.00047168  -0.00315542  0.00082934
  Mg36  0.00015723  -0.00105181  0.00027645
  Mg37  -0.00015723  0.00105181  -0.00027645
  Mg38  0.00031446  -0.00210361  0.00055289
  Mg40  0.00015723  -0.00105181  0.00027645
  Mg41  0.00031446  -0.00210361  0.00055289
  Mg42  -0.00031446  0.00210361  -0.00055289
  Mg43  0.00047168  -0.00315542  0.00082934
  Mg44  0.00047168  -0.00315542  0.00082934
  Mg45  0.00015723  -0.00105181  0.00027645
  Mg46  0.00047168  -0.00315542  0.00082934
  Mg47  -0.00047168  0.00315542  -0.00082934
  Mg48  0.00015723  -0.00105181  0.00027645
  Mg49  0.00031446  -0.00210361  0.00055289
  Mg50  -0.00031446  0.00210361  -0.00055289
  Mg51  0.00031446  -0.00210361  0.00055289
  Mg52  0.00047168  -0.00315542  0.00082934
  Mg53  0.00015723  -0.00105181  0.00027645
  Mg54  0.00047168  -0.00315542  0.00082934
  Mg55  -0.00047168  0.00315542  -0.00082934
  Co56  -0.06006120  0.40178966  -0.10560208
  Co57  -0.08663277  0.57954477  -0.15232133
  Co58  -0.10943087  0.73205655  -0.19240588
  Co59  0.11430495  -0.76466252  0.20097569
  Sn60  0.00062891  -0.00420722  0.00110578
  Sn61  0.00047168  -0.00315542  0.00082934
  Sn62  -0.00047168  0.00315542  -0.00082934
  Sn63  -0.00031446  0.00210361  -0.00055289
