# generated using pymatgen
data_Li7MnAs4
_symmetry_space_group_name_H-M   'P 1'
_cell_length_a   6.05609600
_cell_length_b   6.13706800
_cell_length_c   24.54135400
_cell_angle_alpha   90.00003968
_cell_angle_beta   90.00026319
_cell_angle_gamma   89.99926692
_symmetry_Int_Tables_number   1
_chemical_formula_structural   Li7MnAs4
_chemical_formula_sum   'Li28 Mn4 As16'
_cell_volume   912.12047823
_cell_formula_units_Z   4
loop_
 _symmetry_equiv_pos_site_id
 _symmetry_equiv_pos_as_xyz
  1  'x, y, z'
loop_
 _atom_site_type_symbol
 _atom_site_label
 _atom_site_symmetry_multiplicity
 _atom_site_fract_x
 _atom_site_fract_y
 _atom_site_fract_z
 _atom_site_occupancy
  Li  Li0  1  0.00000000  0.50000000  0.12499500  1
  Li  Li1  1  0.00000200  0.50000300  0.37499500  1
  Li  Li2  1  0.99999900  0.50000000  0.62496600  1
  Li  Li3  1  0.00000000  0.49999900  0.87503600  1
  Li  Li4  1  0.27873800  0.99998300  0.99999900  1
  Li  Li5  1  0.27703000  0.00001300  0.24999700  1
  Li  Li6  1  0.27872600  0.00001300  0.49999700  1
  Li  Li7  1  0.27703800  0.99998600  0.75001700  1
  Li  Li8  1  0.72126100  0.00001600  0.99999900  1
  Li  Li9  1  0.72296800  0.99998700  0.24999700  1
  Li  Li10  1  0.72127200  0.99998700  0.49999600  1
  Li  Li11  1  0.72296000  0.00001300  0.75001600  1
  Li  Li12  1  0.99999900  0.00000000  0.12532200  1
  Li  Li13  1  0.99999900  0.00000000  0.37467500  1
  Li  Li14  1  0.00000000  0.99999900  0.62528700  1
  Li  Li15  1  0.00000000  0.99999900  0.87471200  1
  Li  Li16  1  0.00000100  0.49999900  0.00000000  1
  Li  Li17  1  0.99999900  0.50000100  0.24998300  1
  Li  Li18  1  0.00000000  0.50000100  0.50000000  1
  Li  Li19  1  0.00000100  0.50000000  0.75001000  1
  Li  Li20  1  0.50000100  0.99999900  0.12499700  1
  Li  Li21  1  0.50000200  0.00000200  0.37498900  1
  Li  Li22  1  0.49999900  0.00000000  0.62498300  1
  Li  Li23  1  0.50000000  0.00000000  0.87502300  1
  Li  Li24  1  0.50000000  0.50000100  0.00000100  1
  Li  Li25  1  0.50000000  0.49999800  0.24999900  1
  Li  Li26  1  0.50000000  0.50000000  0.49999000  1
  Li  Li27  1  0.50000000  0.49999900  0.75001100  1
  Mn  Mn28  1  0.50000000  0.50000100  0.62496900  1
  Mn  Mn29  1  0.50000000  0.50000000  0.87503200  1
  Mn  Mn30  1  0.50000000  0.50000000  0.12502000  1
  Mn  Mn31  1  0.50000000  0.50000100  0.37497300  1
  As  As32  1  0.27160700  0.71780500  0.17945600  1
  As  As33  1  0.27115000  0.71852700  0.42922900  1
  As  As34  1  0.27150300  0.71783900  0.67946000  1
  As  As35  1  0.27098400  0.71874000  0.92929800  1
  As  As36  1  0.27110600  0.28147600  0.07075800  1
  As  As37  1  0.27165100  0.28220700  0.32054900  1
  As  As38  1  0.27102100  0.28129300  0.57070200  1
  As  As39  1  0.27149100  0.28214300  0.82055400  1
  As  As40  1  0.72839200  0.28219400  0.17945600  1
  As  As41  1  0.72885900  0.28147400  0.42922900  1
  As  As42  1  0.72849500  0.28216200  0.67946000  1
  As  As43  1  0.72901600  0.28126000  0.92929800  1
  As  As44  1  0.72889500  0.71852300  0.07075800  1
  As  As45  1  0.72834700  0.71779300  0.32054900  1
  As  As46  1  0.72897800  0.71870800  0.57070200  1
  As  As47  1  0.72850800  0.71785700  0.82055400  1
loop_
 _atom_site_moment_label
 _atom_site_moment_crystalaxis_x
 _atom_site_moment_crystalaxis_y
 _atom_site_moment_crystalaxis_z
  Li0  0.00000000  0.00000000  -0.00100000
  Li1  0.00000000  0.00000000  -0.00100000
  Li2  0.00000000  0.00000000  0.00100000
  Li3  0.00000000  0.00000000  0.00100000
  Li12  0.00000001  0.00000000  0.00500000
  Li13  0.00000001  0.00000000  0.00500000
  Li14  -0.00000001  0.00000000  -0.00500000
  Li15  -0.00000001  0.00000000  -0.00500000
  Li17  0.00000000  0.00000000  0.00400000
  Li19  0.00000000  0.00000000  -0.00400000
  Li21  0.00000000  0.00000000  -0.00100000
  Mn28  -0.00000520  -0.00000084  -2.27700000
  Mn29  -0.00000530  -0.00000085  -2.32300000
  Mn30  0.00000525  0.00000084  2.30000000
  Mn31  0.00000529  0.00000085  2.31700000
  As32  -0.00000016  -0.00000003  -0.07100000
  As33  -0.00000015  -0.00000002  -0.06400000
  As34  0.00000016  0.00000003  0.07000000
  As35  0.00000014  0.00000002  0.06100000
  As36  -0.00000013  -0.00000002  -0.05800000
  As37  -0.00000017  -0.00000003  -0.07500000
  As38  0.00000013  0.00000002  0.05800000
  As39  0.00000017  0.00000003  0.07300000
  As40  -0.00000016  -0.00000003  -0.07100000
  As41  -0.00000015  -0.00000002  -0.06400000
  As42  0.00000016  0.00000003  0.07000000
  As43  0.00000014  0.00000002  0.06100000
  As44  -0.00000013  -0.00000002  -0.05800000
  As45  -0.00000017  -0.00000003  -0.07500000
  As46  0.00000013  0.00000002  0.05800000
  As47  0.00000017  0.00000003  0.07300000
