# generated using pymatgen
data_Li2CuS2
_symmetry_space_group_name_H-M   'P 1'
_cell_length_a   5.55187376
_cell_length_b   5.90675715
_cell_length_c   11.09788542
_cell_angle_alpha   90.01085128
_cell_angle_beta   90.00292591
_cell_angle_gamma   90.02336999
_symmetry_Int_Tables_number   1
_chemical_formula_structural   Li2CuS2
_chemical_formula_sum   'Li8 Cu4 S8'
_cell_volume   363.93924528
_cell_formula_units_Z   4
loop_
 _symmetry_equiv_pos_site_id
 _symmetry_equiv_pos_as_xyz
  1  'x, y, z'
loop_
 _atom_site_type_symbol
 _atom_site_label
 _atom_site_symmetry_multiplicity
 _atom_site_fract_x
 _atom_site_fract_y
 _atom_site_fract_z
 _atom_site_occupancy
  Li  Li0  1  0.49997100  0.50002900  0.49974500  1
  Li  Li1  1  0.49998900  0.50001700  0.00023200  1
  Li  Li2  1  0.99992300  0.49999800  0.25000000  1
  Li  Li3  1  0.00004000  0.50004800  0.75000400  1
  Li  Li4  1  0.49998100  0.00003700  0.00026100  1
  Li  Li5  1  0.49996000  0.00002000  0.49975900  1
  Li  Li6  1  0.99999300  0.00005400  0.24999500  1
  Li  Li7  1  0.00001500  0.00000200  0.74999100  1
  Cu  Cu8  1  0.50015200  0.00023700  0.75021400  1
  Cu  Cu9  1  0.50032100  0.49970200  0.74980500  1
  Cu  Cu10  1  0.50012200  0.99948900  0.24998500  1
  Cu  Cu11  1  0.49954200  0.50029700  0.25001400  1
  S  S12  1  0.27233400  0.24993800  0.36361200  1
  S  S13  1  0.27246100  0.25010700  0.86371400  1
  S  S14  1  0.27208400  0.75003600  0.13626500  1
  S  S15  1  0.27272800  0.75006200  0.63641200  1
  S  S16  1  0.72783900  0.74998500  0.36371400  1
  S  S17  1  0.72735400  0.74997600  0.86363500  1
  S  S18  1  0.72758900  0.25004800  0.13640400  1
  S  S19  1  0.72760300  0.24991700  0.63624000  1
loop_
 _atom_site_moment_label
 _atom_site_moment_crystalaxis_x
 _atom_site_moment_crystalaxis_y
 _atom_site_moment_crystalaxis_z
  Li2  -0.00070709  -0.00000008  0.00070709
  Li3  0.00070709  0.00000008  -0.00070709
  Li6  -0.00070709  -0.00000008  0.00070709
  Li7  0.00070709  0.00000008  -0.00070709
  Cu8  -0.22273297  -0.00002440  0.22273293
  Cu9  -0.22273297  -0.00002440  0.22273293
  Cu10  0.21778335  0.00002386  -0.21778331
  Cu11  0.21990461  0.00002409  -0.21990458
  S12  0.10959876  0.00001201  -0.10959874
  S13  -0.10889167  -0.00001193  0.10889166
  S14  0.10889167  0.00001193  -0.10889166
  S15  -0.10959876  -0.00001201  0.10959874
  S16  0.10889167  0.00001193  -0.10889166
  S17  -0.10959876  -0.00001201  0.10959874
  S18  0.10959876  0.00001201  -0.10959874
  S19  -0.10889167  -0.00001193  0.10889166
