# generated using pymatgen
data_Cr7Te8
_symmetry_space_group_name_H-M   'P 1'
_cell_length_a   7.46778826
_cell_length_b   7.46804622
_cell_length_c   9.42230458
_cell_angle_alpha   56.47857369
_cell_angle_beta   56.47966672
_cell_angle_gamma   66.00647754
_symmetry_Int_Tables_number   1
_chemical_formula_structural   Cr7Te8
_chemical_formula_sum   'Cr7 Te8'
_cell_volume   361.29614417
_cell_formula_units_Z   1
loop_
 _symmetry_equiv_pos_site_id
 _symmetry_equiv_pos_as_xyz
  1  'x, y, z'
loop_
 _atom_site_type_symbol
 _atom_site_label
 _atom_site_symmetry_multiplicity
 _atom_site_fract_x
 _atom_site_fract_y
 _atom_site_fract_z
 _atom_site_occupancy
  Cr  Cr0  1  0.73298400  0.26701700  0.50000000  1
  Cr  Cr1  1  0.26700000  0.73299800  0.50000100  1
  Cr  Cr2  1  0.49999000  0.99998800  0.50000600  1
  Cr  Cr3  1  0.00001100  0.50001200  0.49999500  1
  Cr  Cr4  1  0.73622300  0.73621200  0.00957800  1
  Cr  Cr5  1  0.26378400  0.26377900  0.99042200  1
  Cr  Cr6  1  0.00000100  0.00000200  0.00000000  1
  Te  Te7  1  0.96429200  0.96428700  0.33205600  1
  Te  Te8  1  0.03571000  0.03571000  0.66794400  1
  Te  Te9  1  0.54097300  0.03308500  0.16808300  1
  Te  Te10  1  0.45903000  0.96690800  0.83192400  1
  Te  Te11  1  0.96691600  0.45902600  0.83191800  1
  Te  Te12  1  0.03309800  0.54096900  0.16807400  1
  Te  Te13  1  0.45274500  0.45275200  0.33124300  1
  Te  Te14  1  0.54724500  0.54725500  0.66875800  1
loop_
 _atom_site_moment_label
 _atom_site_moment_crystalaxis_x
 _atom_site_moment_crystalaxis_y
 _atom_site_moment_crystalaxis_z
  Cr0  0.00277899  0.00267627  3.49098569
  Cr1  0.00277899  0.00267627  3.49098569
  Cr2  0.00285853  0.00275286  3.59089942
  Cr3  0.00285853  0.00275286  3.59089942
  Cr4  0.00278933  0.00268622  3.50397447
  Cr5  0.00279013  0.00268699  3.50497361
  Cr6  0.00287046  0.00276435  3.60588648
  Te7  -0.00009385  -0.00009038  -0.11789820
  Te8  -0.00009385  -0.00009038  -0.11789820
  Te9  -0.00011294  -0.00010877  -0.14187750
  Te10  -0.00011294  -0.00010877  -0.14187750
  Te11  -0.00011294  -0.00010877  -0.14187750
  Te12  -0.00011294  -0.00010877  -0.14187750
  Te13  -0.00011533  -0.00011106  -0.14487491
  Te14  -0.00011533  -0.00011106  -0.14487491
