# generated using pymatgen
data_RbV5Se8
_symmetry_space_group_name_H-M   'P 1'
_cell_length_a   3.49904409
_cell_length_b   18.30268792
_cell_length_c   9.48629035
_cell_angle_alpha   103.64580182
_cell_angle_beta   79.35213343
_cell_angle_gamma   90.01122134
_symmetry_Int_Tables_number   1
_chemical_formula_structural   RbV5Se8
_chemical_formula_sum   'Rb2 V10 Se16'
_cell_volume   579.60684557
_cell_formula_units_Z   2
loop_
 _symmetry_equiv_pos_site_id
 _symmetry_equiv_pos_as_xyz
  1  'x, y, z'
loop_
 _atom_site_type_symbol
 _atom_site_label
 _atom_site_symmetry_multiplicity
 _atom_site_fract_x
 _atom_site_fract_y
 _atom_site_fract_z
 _atom_site_occupancy
  Rb  Rb0  1  0.49998800  0.25006400  0.00005600  1
  Rb  Rb1  1  0.50001400  0.74996500  0.99996300  1
  V  V2  1  0.00023000  0.49997300  0.99973200  1
  V  V3  1  0.64693500  0.00185500  0.70442800  1
  V  V4  1  0.35283600  0.99825700  0.29575000  1
  V  V5  1  0.70724000  0.82904400  0.58491400  1
  V  V6  1  0.29266600  0.17096800  0.41506500  1
  V  V7  1  0.99990300  0.00002400  0.00009000  1
  V  V8  1  0.64716500  0.50177600  0.70432100  1
  V  V9  1  0.35296600  0.49814200  0.29569900  1
  V  V10  1  0.70739300  0.32892700  0.58494700  1
  V  V11  1  0.29268800  0.67096100  0.41500500  1
  Se  Se12  1  0.42805100  0.08928700  0.14383000  1
  Se  Se13  1  0.42823600  0.58916400  0.14378300  1
  Se  Se14  1  0.57201700  0.41071300  0.85606800  1
  Se  Se15  1  0.57180600  0.91077400  0.85624800  1
  Se  Se16  1  0.91375400  0.41008800  0.17291000  1
  Se  Se17  1  0.91356100  0.91016400  0.17306700  1
  Se  Se18  1  0.08626000  0.08990100  0.82708800  1
  Se  Se19  1  0.08651000  0.58988900  0.82689300  1
  Se  Se20  1  0.83660200  0.24904000  0.32718800  1
  Se  Se21  1  0.83656200  0.74910100  0.32724400  1
  Se  Se22  1  0.16348000  0.25088600  0.67278400  1
  Se  Se23  1  0.16331800  0.75097200  0.67273800  1
  Se  Se24  1  0.75922300  0.07671700  0.48174900  1
  Se  Se25  1  0.75932700  0.57668100  0.48169700  1
  Se  Se26  1  0.24073000  0.42328900  0.51835300  1
  Se  Se27  1  0.24054300  0.92338300  0.51839000  1
loop_
 _atom_site_moment_label
 _atom_site_moment_crystalaxis_x
 _atom_site_moment_crystalaxis_y
 _atom_site_moment_crystalaxis_z
  V2  0.51863410  -0.00172794  -1.37115102
  V3  0.48803733  -0.00162600  -1.29026010
  V4  0.48841507  -0.00162726  -1.29125876
  V5  0.58927108  -0.00196329  -1.55789920
  V6  0.58776013  -0.00195825  -1.55390458
  V7  -0.50352458  0.00167760  1.33120489
  V8  -0.48577090  0.00161845  1.28426818
  V9  -0.48803733  0.00162600  1.29026010
  V10  -0.58776013  0.00195825  1.55390458
  V11  -0.58851560  0.00196077  1.55590189
  Se12  -0.00868797  0.00002895  0.02296903
  Se13  0.00868797  -0.00002895  -0.02296903
  Se14  0.00831023  -0.00002769  -0.02197037
  Se15  -0.00868797  0.00002895  0.02296903
  Se16  0.02228653  -0.00007425  -0.05892055
  Se17  -0.02304201  0.00007677  0.06091785
  Se18  -0.02304201  0.00007677  0.06091785
  Se19  0.02228653  -0.00007425  -0.05892055
  Se20  -0.00717702  0.00002391  0.01897441
  Se21  0.00755476  -0.00002517  -0.01997307
  Se22  0.00755476  -0.00002517  -0.01997307
  Se23  -0.00755476  0.00002517  0.01997307
  Se24  -0.02266427  0.00007551  0.05991920
  Se25  0.02266427  -0.00007551  -0.05991920
  Se26  0.02266427  -0.00007551  -0.05991920
  Se27  -0.02266427  0.00007551  0.05991920
