# generated using pymatgen
data_RbFe2Se3
_symmetry_space_group_name_H-M   'P 1'
_cell_length_a   5.55711003
_cell_length_b   7.77591532
_cell_length_c   7.77589727
_cell_angle_alpha   101.31854545
_cell_angle_beta   89.99077065
_cell_angle_gamma   90.00922024
_symmetry_Int_Tables_number   1
_chemical_formula_structural   RbFe2Se3
_chemical_formula_sum   'Rb2 Fe4 Se6'
_cell_volume   329.47410865
_cell_formula_units_Z   2
loop_
 _symmetry_equiv_pos_site_id
 _symmetry_equiv_pos_as_xyz
  1  'x, y, z'
loop_
 _atom_site_type_symbol
 _atom_site_label
 _atom_site_symmetry_multiplicity
 _atom_site_fract_x
 _atom_site_fract_y
 _atom_site_fract_z
 _atom_site_occupancy
  Rb  Rb0  1  0.74998500  0.66562900  0.33434200  1
  Rb  Rb1  1  0.25001500  0.33434200  0.66562900  1
  Fe  Fe2  1  0.50000000  0.86303800  0.86303800  1
  Fe  Fe3  1  0.50000000  0.13692900  0.13692900  1
  Fe  Fe4  1  0.00000000  0.13695600  0.13695600  1
  Fe  Fe5  1  0.00000000  0.86310500  0.86310500  1
  Se  Se6  1  0.24999400  0.88071600  0.11930300  1
  Se  Se7  1  0.75000700  0.11930200  0.88071500  1
  Se  Se8  1  0.24991300  0.37995800  0.15791700  1
  Se  Se9  1  0.74997400  0.62003300  0.84207600  1
  Se  Se10  1  0.25002700  0.84207600  0.62003300  1
  Se  Se11  1  0.75008700  0.15791700  0.37995800  1
loop_
 _atom_site_moment_label
 _atom_site_moment_crystalaxis_x
 _atom_site_moment_crystalaxis_y
 _atom_site_moment_crystalaxis_z
  Fe2  0.00022228  0.03671724  -2.70255461
  Fe3  0.00022220  0.03670369  -2.70155735
  Fe4  -0.00022204  -0.03667659  2.69956285
  Fe5  -0.00022261  -0.03677144  2.70654362
  Se9  0.00000008  0.00001355  -0.00099725
  Se10  0.00000008  0.00001355  -0.00099725
