# generated using pymatgen
data_LiMnSb
_symmetry_space_group_name_H-M   'P 1'
_cell_length_a   4.47324200
_cell_length_b   4.47327600
_cell_length_c   13.18265700
_cell_angle_alpha   90.00030582
_cell_angle_beta   89.99976303
_cell_angle_gamma   90.00033302
_symmetry_Int_Tables_number   1
_chemical_formula_structural   LiMnSb
_chemical_formula_sum   'Li4 Mn4 Sb4'
_cell_volume   263.78557403
_cell_formula_units_Z   4
loop_
 _symmetry_equiv_pos_site_id
 _symmetry_equiv_pos_as_xyz
  1  'x, y, z'
loop_
 _atom_site_type_symbol
 _atom_site_label
 _atom_site_symmetry_multiplicity
 _atom_site_fract_x
 _atom_site_fract_y
 _atom_site_fract_z
 _atom_site_occupancy
  Li  Li0  1  0.49999900  0.50000100  0.25000000  1
  Li  Li1  1  0.50000000  0.49999900  0.75000000  1
  Li  Li2  1  0.00000000  0.00000000  0.25000200  1
  Li  Li3  1  0.00000000  0.00000000  0.74999700  1
  Mn  Mn4  1  0.50000000  0.50000000  0.50000000  1
  Mn  Mn5  1  0.00000100  0.00000000  0.00000000  1
  Mn  Mn6  1  0.49999700  0.50000000  0.00000000  1
  Mn  Mn7  1  0.00000100  0.00000100  0.50000000  1
  Sb  Sb8  1  0.00000200  0.50000000  0.38176300  1
  Sb  Sb9  1  0.00000000  0.49999800  0.88176400  1
  Sb  Sb10  1  0.50000000  0.00000000  0.11823600  1
  Sb  Sb11  1  0.50000200  0.00000200  0.61823900  1
loop_
 _atom_site_moment_label
 _atom_site_moment_crystalaxis_x
 _atom_site_moment_crystalaxis_y
 _atom_site_moment_crystalaxis_z
  Mn4  0.00000814  -0.00001018  -3.83400000
  Mn5  0.00000814  -0.00001018  -3.83300000
  Mn6  -0.00000814  0.00001018  3.83400000
  Mn7  -0.00000814  0.00001017  3.83200000
  Sb8  0.00000000  0.00000000  0.00100000
  Sb11  0.00000000  0.00000000  0.00100000
