# generated using pymatgen
data_Mg(Co3P2)2
_symmetry_space_group_name_H-M   'P 1'
_cell_length_a   6.43275220
_cell_length_b   6.44081616
_cell_length_c   7.18546300
_cell_angle_alpha   90.00066438
_cell_angle_beta   89.99933797
_cell_angle_gamma   112.08669148
_symmetry_Int_Tables_number   1
_chemical_formula_structural   Mg(Co3P2)2
_chemical_formula_sum   'Mg2 Co12 P8'
_cell_volume   275.86225053
_cell_formula_units_Z   2
loop_
 _symmetry_equiv_pos_site_id
 _symmetry_equiv_pos_as_xyz
  1  'x, y, z'
loop_
 _atom_site_type_symbol
 _atom_site_label
 _atom_site_symmetry_multiplicity
 _atom_site_fract_x
 _atom_site_fract_y
 _atom_site_fract_z
 _atom_site_occupancy
  Mg  Mg0  1  0.86580900  0.13465200  0.00010600  1
  Mg  Mg1  1  0.86570300  0.13460400  0.49988800  1
  Co  Co2  1  0.14925000  0.85054200  0.99998000  1
  Co  Co3  1  0.14921400  0.85052100  0.50002000  1
  Co  Co4  1  0.48592800  0.89709600  0.24999800  1
  Co  Co5  1  0.48606400  0.89739100  0.75000200  1
  Co  Co6  1  0.10284800  0.51409400  0.24999300  1
  Co  Co7  1  0.10253700  0.51388300  0.75000800  1
  Co  Co8  1  0.26379700  0.28331200  0.99999400  1
  Co  Co9  1  0.26387800  0.28331000  0.50000200  1
  Co  Co10  1  0.71683800  0.73628900  0.99994500  1
  Co  Co11  1  0.71684600  0.73634500  0.50005400  1
  Co  Co12  1  0.50566900  0.49407500  0.75000200  1
  Co  Co13  1  0.50559700  0.49416300  0.24999500  1
  P  P14  1  0.70738900  0.29258100  0.25000600  1
  P  P15  1  0.70749200  0.29249400  0.75001200  1
  P  P16  1  0.35763800  0.64211400  0.99978100  1
  P  P17  1  0.35769400  0.64217800  0.50022000  1
  P  P18  1  0.89018200  0.71198800  0.25003800  1
  P  P19  1  0.89017100  0.71199300  0.74996000  1
  P  P20  1  0.28805800  0.10990900  0.24994900  1
  P  P21  1  0.28799700  0.10986800  0.75004600  1
loop_
 _atom_site_moment_label
 _atom_site_moment_crystalaxis_x
 _atom_site_moment_crystalaxis_y
 _atom_site_moment_crystalaxis_z
  Co2  0.00000161  0.00100060  0.00000000
  Co4  0.00105853  0.65839728  0.00000378
  Co5  -0.00105531  -0.65639608  -0.00000376
  Co6  0.00106014  0.65939789  0.00000378
  Co7  -0.00105209  -0.65439487  -0.00000375
  Co9  0.00000161  0.00100060  0.00000000
  Co10  -0.00000161  -0.00100060  0.00000000
  Co12  -0.00037483  -0.23314068  -0.00000134
  Co13  0.00037965  0.23614249  0.00000135
  P14  0.00002252  0.01400845  0.00000008
  P15  -0.00002252  -0.01400845  -0.00000008
