# generated using pymatgen
data_NaVS2
_symmetry_space_group_name_H-M   'P 1'
_cell_length_a   3.62033968
_cell_length_b   7.66840752
_cell_length_c   10.51241615
_cell_angle_alpha   81.53679350
_cell_angle_beta   89.99687598
_cell_angle_gamma   89.99653737
_symmetry_Int_Tables_number   1
_chemical_formula_structural   NaVS2
_chemical_formula_sum   'Na4 V4 S8'
_cell_volume   288.67016109
_cell_formula_units_Z   4
loop_
 _symmetry_equiv_pos_site_id
 _symmetry_equiv_pos_as_xyz
  1  'x, y, z'
loop_
 _atom_site_type_symbol
 _atom_site_label
 _atom_site_symmetry_multiplicity
 _atom_site_fract_x
 _atom_site_fract_y
 _atom_site_fract_z
 _atom_site_occupancy
  Na  Na0  1  0.00014100  0.99380300  0.50518200  1
  Na  Na1  1  0.99988600  0.49024100  0.00385000  1
  Na  Na2  1  0.50005500  0.25967400  0.24603200  1
  Na  Na3  1  0.49989700  0.75624400  0.74491900  1
  V  V4  1  0.00012900  0.49329200  0.51343700  1
  V  V5  1  0.49992500  0.25679300  0.73639700  1
  V  V6  1  0.99994400  0.99087700  0.01418700  1
  V  V7  1  0.50000600  0.75906800  0.23596900  1
  S  S8  1  0.50014700  0.27668300  0.51029100  1
  S  S9  1  0.50000100  0.77484600  0.01039800  1
  S  S10  1  0.00009300  0.53825100  0.26878200  1
  S  S11  1  0.99998100  0.03590900  0.76955800  1
  S  S12  1  0.50006100  0.71421200  0.48050600  1
  S  S13  1  0.49986400  0.21166900  0.98114700  1
  S  S14  1  0.99996000  0.97517500  0.23973900  1
  S  S15  1  0.99991100  0.47326400  0.73960600  1
loop_
 _atom_site_moment_label
 _atom_site_moment_crystalaxis_x
 _atom_site_moment_crystalaxis_y
 _atom_site_moment_crystalaxis_z
  V4  -0.46771227  -1.50388242  -0.65557864
  V5  -0.46849659  -1.50640430  -0.65667799
  V6  0.46928090  1.50892618  0.65777734
  V7  0.46692796  1.50136054  0.65447929
  S8  0.01803921  0.05800329  0.02528503
  S9  -0.01803921  -0.05800329  -0.02528503
  S10  -0.00418301  -0.01345004  -0.00586320
  S11  0.00444444  0.01429067  0.00622965
  S12  0.00444444  0.01429067  0.00622965
  S13  -0.00392157  -0.01260941  -0.00549675
  S14  -0.01803921  -0.05800329  -0.02528503
  S15  0.01803921  0.05800329  0.02528503
