# generated using pymatgen
data_Cr5Te8
_symmetry_space_group_name_H-M   'P 1'
_cell_length_a   7.91443987
_cell_length_b   12.02909772
_cell_length_c   7.91362599
_cell_angle_alpha   90.08839126
_cell_angle_beta   59.98889204
_cell_angle_gamma   90.06434812
_symmetry_Int_Tables_number   1
_chemical_formula_structural   Cr5Te8
_chemical_formula_sum   'Cr10 Te16'
_cell_volume   652.39438550
_cell_formula_units_Z   2
loop_
 _symmetry_equiv_pos_site_id
 _symmetry_equiv_pos_as_xyz
  1  'x, y, z'
loop_
 _atom_site_type_symbol
 _atom_site_label
 _atom_site_symmetry_multiplicity
 _atom_site_fract_x
 _atom_site_fract_y
 _atom_site_fract_z
 _atom_site_occupancy
  Cr  Cr0  1  0.99964300  0.75017200  0.00010000  1
  Cr  Cr1  1  0.99997500  0.24991100  0.00026300  1
  Cr  Cr2  1  0.00049900  0.99059800  0.99996600  1
  Cr  Cr3  1  0.99925800  0.50937100  0.00045500  1
  Cr  Cr4  1  0.00025000  0.99867400  0.49973200  1
  Cr  Cr5  1  0.99963800  0.50138400  0.49984400  1
  Cr  Cr6  1  0.50036700  0.99861400  0.50006300  1
  Cr  Cr7  1  0.49990900  0.50107800  0.49996500  1
  Cr  Cr8  1  0.50010700  0.99891900  0.99977200  1
  Cr  Cr9  1  0.49994400  0.50121100  0.99997300  1
  Te  Te10  1  0.66653500  0.11944100  0.66670700  1
  Te  Te11  1  0.66671600  0.62302000  0.66656600  1
  Te  Te12  1  0.33361400  0.38060700  0.33322800  1
  Te  Te13  1  0.33339800  0.87700800  0.33339400  1
  Te  Te14  1  0.16644300  0.12263400  0.16646600  1
  Te  Te15  1  0.16876300  0.62702000  0.16874200  1
  Te  Te16  1  0.83360400  0.37733900  0.83351900  1
  Te  Te17  1  0.83127900  0.87302200  0.83117700  1
  Te  Te18  1  0.16652100  0.12267600  0.66698600  1
  Te  Te19  1  0.16873300  0.62688200  0.66229200  1
  Te  Te20  1  0.33299400  0.37735700  0.83357800  1
  Te  Te21  1  0.33786500  0.87297900  0.83108600  1
  Te  Te22  1  0.83350300  0.37732500  0.33307400  1
  Te  Te23  1  0.83129000  0.87310400  0.33772800  1
  Te  Te24  1  0.66698200  0.12262400  0.16645800  1
  Te  Te25  1  0.66217300  0.62703200  0.16886700  1
loop_
 _atom_site_moment_label
 _atom_site_moment_crystalaxis_x
 _atom_site_moment_crystalaxis_y
 _atom_site_moment_crystalaxis_z
  Cr0  -0.00061182  -2.73400258  -0.00177810
  Cr1  0.00068276  3.05100288  0.00198426
  Cr2  0.00065210  2.91400275  0.00189516
  Cr3  0.00065300  2.91800276  0.00189776
  Cr4  0.00066217  2.95900280  0.00192443
  Cr5  0.00066217  2.95900280  0.00192443
  Cr6  0.00066172  2.95700280  0.00192313
  Cr7  0.00066195  2.95800280  0.00192378
  Cr8  0.00066239  2.96000280  0.00192508
  Cr9  0.00066217  2.95900280  0.00192443
  Te10  -0.00003290  -0.14700014  -0.00009560
  Te11  -0.00003401  -0.15200014  -0.00009886
  Te12  -0.00003312  -0.14800014  -0.00009625
  Te13  -0.00003401  -0.15200014  -0.00009886
  Te14  -0.00003827  -0.17100016  -0.00011121
  Te15  -0.00002887  -0.12900012  -0.00008390
  Te16  -0.00003827  -0.17100016  -0.00011121
  Te17  -0.00002887  -0.12900012  -0.00008390
  Te18  -0.00003827  -0.17100016  -0.00011121
  Te19  -0.00002887  -0.12900012  -0.00008390
  Te20  -0.00003827  -0.17100016  -0.00011121
  Te21  -0.00002887  -0.12900012  -0.00008390
  Te22  -0.00003804  -0.17000016  -0.00011056
  Te23  -0.00002887  -0.12900012  -0.00008390
  Te24  -0.00003827  -0.17100016  -0.00011121
  Te25  -0.00002864  -0.12800012  -0.00008325
