# generated using pymatgen
data_CaFe5As3
_symmetry_space_group_name_H-M   'P 1'
_cell_length_a   3.84827900
_cell_length_b   6.95300449
_cell_length_c   9.70424944
_cell_angle_alpha   99.76562434
_cell_angle_beta   90.00230797
_cell_angle_gamma   90.00261288
_symmetry_Int_Tables_number   1
_chemical_formula_structural   CaFe5As3
_chemical_formula_sum   'Ca2 Fe10 As6'
_cell_volume   255.89510418
_cell_formula_units_Z   2
loop_
 _symmetry_equiv_pos_site_id
 _symmetry_equiv_pos_as_xyz
  1  'x, y, z'
loop_
 _atom_site_type_symbol
 _atom_site_label
 _atom_site_symmetry_multiplicity
 _atom_site_fract_x
 _atom_site_fract_y
 _atom_site_fract_z
 _atom_site_occupancy
  Ca  Ca0  1  0.24999700  0.31069700  0.71390400  1
  Ca  Ca1  1  0.75000300  0.68945600  0.28612000  1
  Fe  Fe2  1  0.24999200  0.81451800  0.77751100  1
  Fe  Fe3  1  0.75000700  0.18560500  0.22252700  1
  Fe  Fe4  1  0.25000200  0.41001500  0.40580800  1
  Fe  Fe5  1  0.74999800  0.96015800  0.57763400  1
  Fe  Fe6  1  0.25000000  0.03973000  0.42221900  1
  Fe  Fe7  1  0.24999900  0.63395700  0.00487800  1
  Fe  Fe8  1  0.75000600  0.36557000  0.99506700  1
  Fe  Fe9  1  0.75000000  0.88560100  0.01318400  1
  Fe  Fe10  1  0.25000100  0.11473800  0.98671000  1
  Fe  Fe11  1  0.74999500  0.59010000  0.59441800  1
  As  As12  1  0.74999500  0.60283300  0.83546900  1
  As  As13  1  0.25000600  0.39733500  0.16469800  1
  As  As14  1  0.74999700  0.06190000  0.82249600  1
  As  As15  1  0.25000300  0.93777000  0.17719700  1
  As  As16  1  0.24999800  0.73945900  0.52212700  1
  As  As17  1  0.75000100  0.26055800  0.47803200  1
loop_
 _atom_site_moment_label
 _atom_site_moment_crystalaxis_x
 _atom_site_moment_crystalaxis_y
 _atom_site_moment_crystalaxis_z
  Ca1  0.00000002  -0.00001867  0.00099666
  Fe2  0.00003876  -0.03803845  2.03020301
  Fe3  0.00003870  -0.03798243  2.02721302
  Fe4  -0.00001836  0.01802018  -0.96178002
  Fe5  -0.00003653  0.03585362  -1.91359342
  Fe6  -0.00003705  0.03635781  -1.94050332
  Fe7  0.00004302  -0.04222137  2.25345558
  Fe8  0.00004287  -0.04207198  2.24548227
  Fe9  0.00003998  -0.03923357  2.09398946
  Fe10  0.00003996  -0.03921490  2.09299280
  Fe11  -0.00001825  0.01790814  -0.95580004
  As12  -0.00000076  0.00074695  -0.03986653
  As13  -0.00000074  0.00072828  -0.03886987
  As14  -0.00000049  0.00048552  -0.02591324
  As15  -0.00000049  0.00048552  -0.02591324
  As16  0.00000049  -0.00048552  0.02591324
  As17  0.00000049  -0.00048552  0.02591324
