# generated using pymatgen
data_NaVS2
_symmetry_space_group_name_H-M   'P 1'
_cell_length_a   3.60991251
_cell_length_b   7.02988311
_cell_length_c   11.99546173
_cell_angle_alpha   98.67055327
_cell_angle_beta   89.99682107
_cell_angle_gamma   104.85988965
_symmetry_Int_Tables_number   1
_chemical_formula_structural   NaVS2
_chemical_formula_sum   'Na4 V4 S8'
_cell_volume   290.63105296
_cell_formula_units_Z   4
loop_
 _symmetry_equiv_pos_site_id
 _symmetry_equiv_pos_as_xyz
  1  'x, y, z'
loop_
 _atom_site_type_symbol
 _atom_site_label
 _atom_site_symmetry_multiplicity
 _atom_site_fract_x
 _atom_site_fract_y
 _atom_site_fract_z
 _atom_site_occupancy
  Na  Na0  1  0.24863300  0.49739000  0.54878000  1
  Na  Na1  1  0.74948900  0.49904400  0.78760500  1
  Na  Na2  1  0.24860600  0.49740100  0.04879800  1
  Na  Na3  1  0.74946200  0.49894400  0.28757600  1
  V  V4  1  0.49420700  0.98848100  0.76013100  1
  V  V5  1  0.99917800  0.99823400  0.98754700  1
  V  V6  1  0.49430600  0.98864600  0.26015100  1
  V  V7  1  0.99912400  0.99818100  0.48759300  1
  S  S8  1  0.39143800  0.78277600  0.40103100  1
  S  S9  1  0.90117300  0.80217400  0.64979500  1
  S  S10  1  0.39139200  0.78267800  0.90096500  1
  S  S11  1  0.90109500  0.80202900  0.14980700  1
  S  S12  1  0.10264200  0.20533000  0.34736800  1
  S  S13  1  0.59330000  0.18664300  0.59773700  1
  S  S14  1  0.10266000  0.20541300  0.84734600  1
  S  S15  1  0.59329500  0.18663500  0.09776900  1
loop_
 _atom_site_moment_label
 _atom_site_moment_crystalaxis_x
 _atom_site_moment_crystalaxis_y
 _atom_site_moment_crystalaxis_z
  Na0  0.00025712  0.00100206  0.00044215
  Na1  -0.00025712  -0.00100206  -0.00044215
  Na2  -0.00025712  -0.00100206  -0.00044215
  Na3  0.00025712  0.00100206  0.00044215
  V4  -0.45896711  -1.78867257  -0.78922930
  V5  -0.45768149  -1.78366229  -0.78701857
  V6  0.45870998  1.78767052  0.78878715
  V7  0.45793861  1.78466434  0.78746071
  S8  -0.01645596  -0.06413168  -0.02829730
  S9  0.00385687  0.01503086  0.00663218
  S10  0.01645596  0.06413168  0.02829730
  S11  -0.00385687  -0.01503086  -0.00663218
  S12  -0.01799871  -0.07014402  -0.03095017
  S13  -0.00385687  -0.01503086  -0.00663218
  S14  0.01799871  0.07014402  0.03095017
  S15  0.00385687  0.01503086  0.00663218
