# generated using pymatgen
data_KCr5Se8
_symmetry_space_group_name_H-M   'P 1'
_cell_length_a   3.68101186
_cell_length_b   8.98537129
_cell_length_c   9.56458220
_cell_angle_alpha   104.46766047
_cell_angle_beta   78.90562457
_cell_angle_gamma   89.97086982
_symmetry_Int_Tables_number   1
_chemical_formula_structural   KCr5Se8
_chemical_formula_sum   'K1 Cr5 Se8'
_cell_volume   300.20136496
_cell_formula_units_Z   1
loop_
 _symmetry_equiv_pos_site_id
 _symmetry_equiv_pos_as_xyz
  1  'x, y, z'
loop_
 _atom_site_type_symbol
 _atom_site_label
 _atom_site_symmetry_multiplicity
 _atom_site_fract_x
 _atom_site_fract_y
 _atom_site_fract_z
 _atom_site_occupancy
  K  K0  1  0.47014200  0.50000100  0.00016300  1
  Cr  Cr1  1  0.65305500  0.01078400  0.68727600  1
  Cr  Cr2  1  0.34018000  0.98922000  0.31273800  1
  Cr  Cr3  1  0.99932200  0.00000300  0.99996300  1
  Cr  Cr4  1  0.29337100  0.32757200  0.40969100  1
  Cr  Cr5  1  0.70375300  0.67244700  0.59030800  1
  Se  Se6  1  0.82646100  0.48679600  0.34305900  1
  Se  Se7  1  0.17044800  0.51322600  0.65688000  1
  Se  Se8  1  0.08268000  0.17365900  0.82631700  1
  Se  Se9  1  0.90936300  0.82628200  0.17361100  1
  Se  Se10  1  0.75749600  0.15379900  0.48059900  1
  Se  Se11  1  0.23835900  0.84621300  0.51940200  1
  Se  Se12  1  0.42770700  0.16484100  0.14253600  1
  Se  Se13  1  0.57066300  0.83515700  0.85745500  1
loop_
 _atom_site_moment_label
 _atom_site_moment_crystalaxis_x
 _atom_site_moment_crystalaxis_y
 _atom_site_moment_crystalaxis_z
  K0  -0.00153703  0.00000153  0.00400091
  Cr1  1.06439237  -0.00106042  -2.77062749
  Cr2  1.06477663  -0.00106080  -2.77162772
  Cr3  -1.06592940  0.00106195  2.77462840
  Cr4  -1.10166532  0.00109755  2.86764947
  Cr5  -1.10166532  0.00109755  2.86764947
  Se6  0.04918492  -0.00004900  -0.12802900
  Se7  0.04918492  -0.00004900  -0.12802900
  Se8  -0.01191197  0.00001187  0.03100702
  Se9  -0.01191197  0.00001187  0.03100702
  Se10  -0.01498603  0.00001493  0.03900883
  Se11  -0.01498603  0.00001493  0.03900883
  Se12  0.01152772  -0.00001148  -0.03000680
  Se13  0.01152772  -0.00001148  -0.03000680
