# generated using pymatgen
data_LiAl2Ru
_symmetry_space_group_name_H-M   'P 1'
_cell_length_a   9.48127974
_cell_length_b   26.18734147
_cell_length_c   9.49506918
_cell_angle_alpha   79.76781770
_cell_angle_beta   89.64451173
_cell_angle_gamma   99.83734255
_symmetry_Int_Tables_number   1
_chemical_formula_structural   LiAl2Ru
_chemical_formula_sum   'Li4 Al8 Ru4'
_cell_volume   2284.29497064
_cell_formula_units_Z   4
loop_
 _symmetry_equiv_pos_site_id
 _symmetry_equiv_pos_as_xyz
  1  'x, y, z'
loop_
 _atom_site_type_symbol
 _atom_site_label
 _atom_site_symmetry_multiplicity
 _atom_site_fract_x
 _atom_site_fract_y
 _atom_site_fract_z
 _atom_site_occupancy
  Li  Li0  1  0.99998100  0.99837100  0.01089600  1
  Li  Li1  1  0.49934800  0.25096500  0.49403600  1
  Li  Li2  1  0.00826800  0.50001700  0.99790700  1
  Li  Li3  1  0.51706800  0.74843300  0.51062500  1
  Al  Al4  1  0.34230400  0.15691800  0.63162700  1
  Al  Al5  1  0.82032000  0.43110000  0.18656700  1
  Al  Al6  1  0.36061400  0.65795200  0.64575200  1
  Al  Al7  1  0.83422700  0.92557000  0.20791700  1
  Al  Al8  1  0.16883100  0.06843600  0.80493100  1
  Al  Al9  1  0.64754700  0.34633400  0.35933800  1
  Al  Al10  1  0.19148900  0.57232000  0.81525200  1
  Al  Al11  1  0.66440600  0.83989500  0.37202000  1
  Ru  Ru12  1  0.17782900  0.65876500  0.80010700  1
  Ru  Ru13  1  0.73931800  0.84843400  0.14025200  1
  Ru  Ru14  1  0.22468400  0.15231600  0.84341500  1
  Ru  Ru15  1  0.80376500  0.34417500  0.17936000  1
loop_
 _atom_site_moment_label
 _atom_site_moment_crystalaxis_x
 _atom_site_moment_crystalaxis_y
 _atom_site_moment_crystalaxis_z
  Al4  -0.00881012  -0.01131234  -0.00553379
  Al5  -0.00881012  -0.01131234  -0.00553379
  Al6  0.00939746  0.01206650  0.00590270
  Al7  0.00939746  0.01206650  0.00590270
  Al8  -0.00822278  -0.01055819  -0.00516487
  Al9  -0.00881012  -0.01131234  -0.00553379
  Al10  0.00939746  0.01206650  0.00590270
  Al11  0.00939746  0.01206650  0.00590270
  Ru12  -0.48573107  -0.62368707  -0.30509603
  Ru13  -0.48631841  -0.62444123  -0.30546495
  Ru14  0.47750830  0.61312889  0.29993116
  Ru15  0.48044500  0.61689967  0.30177576
