# generated using pymatgen
data_K3(FeSe)8
_symmetry_space_group_name_H-M   'P 1'
_cell_length_a   7.73757061
_cell_length_b   7.71858288
_cell_length_c   8.44817317
_cell_angle_alpha   70.99677733
_cell_angle_beta   62.51635388
_cell_angle_gamma   76.80991450
_symmetry_Int_Tables_number   1
_chemical_formula_structural   K3(FeSe)8
_chemical_formula_sum   'K3 Fe8 Se8'
_cell_volume   421.38452078
_cell_formula_units_Z   1
loop_
 _symmetry_equiv_pos_site_id
 _symmetry_equiv_pos_as_xyz
  1  'x, y, z'
loop_
 _atom_site_type_symbol
 _atom_site_label
 _atom_site_symmetry_multiplicity
 _atom_site_fract_x
 _atom_site_fract_y
 _atom_site_fract_z
 _atom_site_occupancy
  K  K0  1  0.49995700  0.00005600  0.00000700  1
  K  K1  1  0.76139700  0.00427700  0.47095900  1
  K  K2  1  0.23863600  0.99565900  0.52904600  1
  Fe  Fe3  1  0.91879500  0.51495400  0.38230100  1
  Fe  Fe4  1  0.58112400  0.48701900  0.61695500  1
  Fe  Fe5  1  0.80681800  0.49966100  0.13571600  1
  Fe  Fe6  1  0.69205200  0.49831100  0.86368400  1
  Fe  Fe7  1  0.08129400  0.48484700  0.61772200  1
  Fe  Fe8  1  0.41886900  0.51295500  0.38315500  1
  Fe  Fe9  1  0.19309000  0.50047500  0.86421400  1
  Fe  Fe10  1  0.30802200  0.50176500  0.13620000  1
  Se  Se11  1  0.15033800  0.72060100  0.32199600  1
  Se  Se12  1  0.84965000  0.27938500  0.67812100  1
  Se  Se13  1  0.64891400  0.72027700  0.32027800  1
  Se  Se14  1  0.35112000  0.27957000  0.67977100  1
  Se  Se15  1  0.91593400  0.69330000  0.82505000  1
  Se  Se16  1  0.08397000  0.30671800  0.17487900  1
  Se  Se17  1  0.41768300  0.69641800  0.82435900  1
  Se  Se18  1  0.58233800  0.30375200  0.17558800  1
loop_
 _atom_site_moment_label
 _atom_site_moment_crystalaxis_x
 _atom_site_moment_crystalaxis_y
 _atom_site_moment_crystalaxis_z
  K1  -0.00003493  0.00002013  0.00400941
  K2  0.00003493  -0.00002013  -0.00400941
  Fe3  0.02217035  -0.01277522  -2.54497541
  Fe4  0.02199571  -0.01267459  -2.52492834
  Fe5  0.02199571  -0.01267459  -2.52492834
  Fe6  0.02191712  -0.01262930  -2.51590716
  Fe7  -0.02220528  0.01279534  2.54898482
  Fe8  -0.02207430  0.01271987  2.53394952
  Fe9  -0.02196078  0.01265446  2.52091893
  Fe10  -0.02192585  0.01263433  2.51690951
  Se11  -0.00041913  0.00024152  0.04811297
  Se12  0.00041913  -0.00024152  -0.04811297
  Se13  0.00041040  -0.00023648  -0.04711061
  Se14  -0.00041040  0.00023648  0.04711061
  Se15  0.00006986  -0.00004025  -0.00801883
  Se16  -0.00006986  0.00004025  0.00801883
  Se17  -0.00006112  0.00003522  0.00701647
  Se18  0.00006112  -0.00003522  -0.00701647
