# generated using pymatgen
data_BeFe2P
_symmetry_space_group_name_H-M   'P 1'
_cell_length_a   8.50681196
_cell_length_b   8.55194685
_cell_length_c   8.50928610
_cell_angle_alpha   63.44934087
_cell_angle_beta   60.23705462
_cell_angle_gamma   60.12563349
_symmetry_Int_Tables_number   1
_chemical_formula_structural   BeFe2P
_chemical_formula_sum   'Be1 Fe2 P1'
_cell_volume   449.27753600
_cell_formula_units_Z   1
loop_
 _symmetry_equiv_pos_site_id
 _symmetry_equiv_pos_as_xyz
  1  'x, y, z'
loop_
 _atom_site_type_symbol
 _atom_site_label
 _atom_site_symmetry_multiplicity
 _atom_site_fract_x
 _atom_site_fract_y
 _atom_site_fract_z
 _atom_site_occupancy
  Be  Be0  1  0.99971000  0.99985100  0.00033200  1
  Fe  Fe1  1  0.00044300  0.73597700  0.26375800  1
  Fe  Fe2  1  0.99998700  0.26403300  0.73599100  1
  P  P3  1  0.99986000  0.50013900  0.49991900  1
loop_
 _atom_site_moment_label
 _atom_site_moment_crystalaxis_x
 _atom_site_moment_crystalaxis_y
 _atom_site_moment_crystalaxis_z
  Be0  0.00001760  -0.00002686  -0.00099645
  Fe1  0.05280370  -0.08060027  -2.99036041
  Fe2  -0.05231103  0.07984826  2.96245968
  P3  0.00005279  -0.00008057  -0.00298936
