# generated using pymatgen
data_Mg6FeSi
_symmetry_space_group_name_H-M   'P 1'
_cell_length_a   7.82737756
_cell_length_b   10.52686768
_cell_length_c   7.82735767
_cell_angle_alpha   89.33237287
_cell_angle_beta   75.34364283
_cell_angle_gamma   89.33217497
_symmetry_Int_Tables_number   1
_chemical_formula_structural   Mg6FeSi
_chemical_formula_sum   'Mg24 Fe4 Si4'
_cell_volume   623.90276405
_cell_formula_units_Z   4
loop_
 _symmetry_equiv_pos_site_id
 _symmetry_equiv_pos_as_xyz
  1  'x, y, z'
loop_
 _atom_site_type_symbol
 _atom_site_label
 _atom_site_symmetry_multiplicity
 _atom_site_fract_x
 _atom_site_fract_y
 _atom_site_fract_z
 _atom_site_occupancy
  Mg  Mg0  1  0.87447500  0.40777300  0.37475300  1
  Mg  Mg1  1  0.10777700  0.91461500  0.60750400  1
  Mg  Mg2  1  0.37475300  0.40777300  0.87447600  1
  Mg  Mg3  1  0.60750500  0.91461500  0.10777700  1
  Mg  Mg4  1  0.48928500  0.16207800  0.98910700  1
  Mg  Mg5  1  0.74515500  0.66168400  0.24524600  1
  Mg  Mg6  1  0.98910800  0.16207800  0.48928400  1
  Mg  Mg7  1  0.24524600  0.66168400  0.74515500  1
  Mg  Mg8  1  0.37960600  0.08906000  0.37960600  1
  Mg  Mg9  1  0.62420600  0.58208800  0.62420600  1
  Mg  Mg10  1  0.87951700  0.08899300  0.87951700  1
  Mg  Mg11  1  0.12432400  0.58233600  0.12432400  1
  Mg  Mg12  1  0.26419800  0.34277600  0.26419600  1
  Mg  Mg13  1  0.48652900  0.83128000  0.48652900  1
  Mg  Mg14  1  0.76422200  0.34274100  0.76422200  1
  Mg  Mg15  1  0.98645600  0.83128300  0.98645600  1
  Mg  Mg16  1  0.74763500  0.16768900  0.24805700  1
  Mg  Mg17  1  0.00113400  0.67098500  0.50142100  1
  Mg  Mg18  1  0.24805600  0.16768800  0.74763600  1
  Mg  Mg19  1  0.50142000  0.67098500  0.00113500  1
  Mg  Mg20  1  0.63884400  0.41274900  0.13938400  1
  Mg  Mg21  1  0.86704000  0.90978500  0.36692200  1
  Mg  Mg22  1  0.13938500  0.41274900  0.63884400  1
  Mg  Mg23  1  0.36692100  0.90978500  0.86704100  1
  Fe  Fe24  1  0.54131000  0.29093100  0.54131100  1
  Fe  Fe25  1  0.72910300  0.88931700  0.72910300  1
  Fe  Fe26  1  0.04085600  0.29119900  0.04085600  1
  Fe  Fe27  1  0.22895900  0.88964500  0.22896000  1
  Si  Si28  1  0.12614000  0.08377800  0.12614000  1
  Si  Si29  1  0.37722700  0.58320400  0.37722600  1
  Si  Si30  1  0.62619000  0.08362300  0.62619000  1
  Si  Si31  1  0.87742900  0.58303600  0.87742900  1
loop_
 _atom_site_moment_label
 _atom_site_moment_crystalaxis_x
 _atom_site_moment_crystalaxis_y
 _atom_site_moment_crystalaxis_z
  Mg9  0.00186334  0.00518158  0.00186335
  Mg11  -0.00186334  -0.00518158  -0.00186335
  Mg12  -0.00155278  -0.00431799  -0.00155279
  Mg13  0.00031056  0.00086360  0.00031056
  Mg14  0.00186334  0.00518158  0.00186335
  Mg15  -0.00031056  -0.00086360  -0.00031056
  Fe24  -0.73198144  -2.03549921  -0.73198599
  Fe25  -0.74254036  -2.06486152  -0.74254498
  Fe26  0.73167089  2.03463561  0.73167543
  Fe27  0.74626704  2.07522469  0.74627168
  Si28  -0.00931669  -0.02590792  -0.00931675
  Si29  -0.00124223  -0.00345439  -0.00124223
  Si30  0.00900614  0.02504433  0.00900619
  Si31  0.00093167  0.00259079  0.00093168
