# generated using pymatgen
data_K(FeSe)2
_symmetry_space_group_name_H-M   'P 1'
_cell_length_a   3.75355908
_cell_length_b   7.69608135
_cell_length_c   7.82187402
_cell_angle_alpha   102.71540757
_cell_angle_beta   92.02343813
_cell_angle_gamma   75.77378893
_symmetry_Int_Tables_number   1
_chemical_formula_structural   K(FeSe)2
_chemical_formula_sum   'K2 Fe4 Se4'
_cell_volume   213.61283473
_cell_formula_units_Z   2
loop_
 _symmetry_equiv_pos_site_id
 _symmetry_equiv_pos_as_xyz
  1  'x, y, z'
loop_
 _atom_site_type_symbol
 _atom_site_label
 _atom_site_symmetry_multiplicity
 _atom_site_fract_x
 _atom_site_fract_y
 _atom_site_fract_z
 _atom_site_occupancy
  K  K0  1  0.99996000  0.00008100  0.50000000  1
  K  K1  1  0.00002100  0.99996100  0.99999400  1
  Fe  Fe2  1  0.74698800  0.51302000  0.39292600  1
  Fe  Fe3  1  0.25300600  0.48703500  0.60711400  1
  Fe  Fe4  1  0.74723200  0.51305500  0.89300900  1
  Fe  Fe5  1  0.25287700  0.48691000  0.10704700  1
  Se  Se6  1  0.35734200  0.28673900  0.31374300  1
  Se  Se7  1  0.35774500  0.28664300  0.81373600  1
  Se  Se8  1  0.64255700  0.71332900  0.68622200  1
  Se  Se9  1  0.64227100  0.71322700  0.18620900  1
loop_
 _atom_site_moment_label
 _atom_site_moment_crystalaxis_x
 _atom_site_moment_crystalaxis_y
 _atom_site_moment_crystalaxis_z
  K0  -0.00189168  0.00395374  0.00185753
  K1  0.00189168  -0.00395374  -0.00185753
  Fe2  1.28066718  -2.67668472  -1.25754497
  Fe3  1.28303178  -2.68162690  -1.25986688
  Fe4  -1.28397762  2.68360377  1.26079564
  Fe5  -1.27972134  2.67470785  1.25661621
  Se6  0.02695644  -0.05634085  -0.02646974
  Se7  -0.02695644  0.05634085  0.02646974
  Se8  0.02695644  -0.05634085  -0.02646974
  Se9  -0.02648352  0.05535242  0.02600536
