# generated using pymatgen
data_MnTe
_symmetry_space_group_name_H-M   'P 1'
_cell_length_a   4.08875779
_cell_length_b   4.08875614
_cell_length_c   7.08419136
_cell_angle_alpha   106.77211878
_cell_angle_beta   106.77204746
_cell_angle_gamma   60.00623516
_symmetry_Int_Tables_number   1
_chemical_formula_structural   MnTe
_chemical_formula_sum   'Mn2 Te2'
_cell_volume   96.71046569
_cell_formula_units_Z   2
loop_
 _symmetry_equiv_pos_site_id
 _symmetry_equiv_pos_as_xyz
  1  'x, y, z'
loop_
 _atom_site_type_symbol
 _atom_site_label
 _atom_site_symmetry_multiplicity
 _atom_site_fract_x
 _atom_site_fract_y
 _atom_site_fract_z
 _atom_site_occupancy
  Mn  Mn0  1  0.50000000  0.49999800  0.50000000  1
  Mn  Mn1  1  0.00000000  0.00000100  0.99999900  1
  Te  Te2  1  0.75000000  0.75000000  0.25000100  1
  Te  Te3  1  0.25000000  0.25000000  0.75000000  1
loop_
 _atom_site_moment_label
 _atom_site_moment_crystalaxis_x
 _atom_site_moment_crystalaxis_y
 _atom_site_moment_crystalaxis_z
  Mn0  -2.04979368  -2.04979778  -3.55054994
  Mn1  2.04979368  2.04979778  3.55054994
