# generated using pymatgen
data_KCr3S5
_symmetry_space_group_name_H-M   'P 1'
_cell_length_a   3.53218770
_cell_length_b   9.77563407
_cell_length_c   10.70949806
_cell_angle_alpha   72.19911040
_cell_angle_beta   80.51091002
_cell_angle_gamma   79.58282190
_symmetry_Int_Tables_number   1
_chemical_formula_structural   KCr3S5
_chemical_formula_sum   'K2 Cr6 S10'
_cell_volume   343.90575121
_cell_formula_units_Z   2
loop_
 _symmetry_equiv_pos_site_id
 _symmetry_equiv_pos_as_xyz
  1  'x, y, z'
loop_
 _atom_site_type_symbol
 _atom_site_label
 _atom_site_symmetry_multiplicity
 _atom_site_fract_x
 _atom_site_fract_y
 _atom_site_fract_z
 _atom_site_occupancy
  K  K0  1  0.74236400  0.33939800  0.17462700  1
  K  K1  1  0.25754500  0.66058900  0.82541400  1
  Cr  Cr2  1  0.50015400  0.00012900  0.99997200  1
  Cr  Cr3  1  0.83797700  0.93711800  0.38671000  1
  Cr  Cr4  1  0.16196200  0.06279600  0.61322600  1
  Cr  Cr5  1  0.50009600  0.50003700  0.50007400  1
  Cr  Cr6  1  0.01362100  0.74632500  0.22684600  1
  Cr  Cr7  1  0.98653500  0.25353900  0.77321900  1
  S  S8  1  0.92226000  0.00651300  0.14908700  1
  S  S9  1  0.07774300  0.99355300  0.85094200  1
  S  S10  1  0.59467600  0.73235800  0.07834600  1
  S  S11  1  0.40523400  0.26773300  0.92157300  1
  S  S12  1  0.42576700  0.75719000  0.39117000  1
  S  S13  1  0.57417300  0.24278200  0.60879400  1
  S  S14  1  0.25675300  0.10274500  0.38343000  1
  S  S15  1  0.74321900  0.89716700  0.61641900  1
  S  S16  1  0.07985400  0.49470000  0.34535400  1
  S  S17  1  0.92006900  0.50532800  0.65479700  1
loop_
 _atom_site_moment_label
 _atom_site_moment_crystalaxis_x
 _atom_site_moment_crystalaxis_y
 _atom_site_moment_crystalaxis_z
  Cr2  0.00219837  0.00392402  -2.72855820
  Cr3  0.00222014  0.00396287  -2.75557363
  Cr4  0.00222094  0.00396431  -2.75657420
  Cr5  -0.00229591  -0.00409813  2.84962734
  Cr6  -0.00219192  -0.00391251  2.72055363
  Cr7  -0.00219112  -0.00391107  2.71955306
  S8  -0.00002418  -0.00004317  0.03001714
  S9  -0.00002418  -0.00004317  0.03001714
  S10  0.00002418  0.00004317  -0.03001714
  S11  0.00002418  0.00004317  -0.03001714
  S12  0.00003144  0.00005612  -0.03902228
  S13  0.00003144  0.00005612  -0.03902228
  S14  -0.00006933  -0.00012375  0.08604914
  S15  -0.00006933  -0.00012375  0.08604914
  S16  0.00004756  0.00008490  -0.05903371
  S17  0.00004756  0.00008490  -0.05903371
