# generated using pymatgen
data_CaCoSe2
_symmetry_space_group_name_H-M   'P 1'
_cell_length_a   6.43310765
_cell_length_b   6.43315716
_cell_length_c   10.93570343
_cell_angle_alpha   72.88939208
_cell_angle_beta   72.89087562
_cell_angle_gamma   90.01410659
_symmetry_Int_Tables_number   1
_chemical_formula_structural   CaCoSe2
_chemical_formula_sum   'Ca4 Co4 Se8'
_cell_volume   411.53195495
_cell_formula_units_Z   4
loop_
 _symmetry_equiv_pos_site_id
 _symmetry_equiv_pos_as_xyz
  1  'x, y, z'
loop_
 _atom_site_type_symbol
 _atom_site_label
 _atom_site_symmetry_multiplicity
 _atom_site_fract_x
 _atom_site_fract_y
 _atom_site_fract_z
 _atom_site_occupancy
  Ca  Ca0  1  0.75007700  0.75007500  0.49988500  1
  Ca  Ca1  1  0.49997200  0.49996900  0.00009500  1
  Ca  Ca2  1  0.25007400  0.25007600  0.49988500  1
  Ca  Ca3  1  0.99997000  0.99997200  0.00009500  1
  Co  Co4  1  0.37498000  0.87497900  0.24998700  1
  Co  Co5  1  0.12496700  0.62496500  0.75000800  1
  Co  Co6  1  0.62496900  0.12497000  0.75000400  1
  Co  Co7  1  0.87498100  0.37497600  0.24998300  1
  Se  Se8  1  0.83444800  0.33445000  0.83113700  1
  Se  Se9  1  0.58451900  0.08452000  0.33112800  1
  Se  Se10  1  0.33450100  0.83450200  0.83113200  1
  Se  Se11  1  0.08445600  0.58445800  0.33110900  1
  Se  Se12  1  0.41549100  0.41543900  0.66898400  1
  Se  Se13  1  0.16553200  0.16562700  0.16878900  1
  Se  Se14  1  0.91543500  0.91548700  0.66899300  1
  Se  Se15  1  0.66562800  0.66553500  0.16879000  1
loop_
 _atom_site_moment_label
 _atom_site_moment_crystalaxis_x
 _atom_site_moment_crystalaxis_y
 _atom_site_moment_crystalaxis_z
  Co4  0.55681210  0.55683780  -1.89264427
  Co5  0.55519440  0.55522003  -1.88714560
  Co6  -0.55745918  -0.55748491  1.89484374
  Co7  -0.55551794  -0.55554358  1.88824533
  Se8  0.00032354  0.00032355  -0.00109974
  Se9  -0.00032354  -0.00032355  0.00109974
  Se12  0.00032354  0.00032355  -0.00109974
  Se14  0.00032354  0.00032355  -0.00109974
