# generated using pymatgen
data_Ca(FeSi)2
_symmetry_space_group_name_H-M   'P 1'
_cell_length_a   3.93419748
_cell_length_b   3.93418932
_cell_length_c   5.68974876
_cell_angle_alpha   110.24510273
_cell_angle_beta   110.24502998
_cell_angle_gamma   89.99543358
_symmetry_Int_Tables_number   1
_chemical_formula_structural   Ca(FeSi)2
_chemical_formula_sum   'Ca1 Fe2 Si2'
_cell_volume   76.80060479
_cell_formula_units_Z   1
loop_
 _symmetry_equiv_pos_site_id
 _symmetry_equiv_pos_as_xyz
  1  'x, y, z'
loop_
 _atom_site_type_symbol
 _atom_site_label
 _atom_site_symmetry_multiplicity
 _atom_site_fract_x
 _atom_site_fract_y
 _atom_site_fract_z
 _atom_site_occupancy
  Ca  Ca0  1  0.99999900  0.00000000  0.00000000  1
  Fe  Fe1  1  0.25004900  0.74995100  0.50000000  1
  Fe  Fe2  1  0.74995200  0.25004800  0.50000000  1
  Si  Si3  1  0.63269000  0.63269100  0.26535000  1
  Si  Si4  1  0.36730900  0.36730900  0.73465000  1
loop_
 _atom_site_moment_label
 _atom_site_moment_crystalaxis_x
 _atom_site_moment_crystalaxis_y
 _atom_site_moment_crystalaxis_z
  Ca0  0.00001216  0.00001215  -0.00599157
  Fe1  -0.00157015  -0.00156998  0.77391098
  Fe2  -0.00157015  -0.00156998  0.77391098
  Si3  0.00009117  0.00009116  -0.04493677
  Si4  0.00009117  0.00009116  -0.04493677
