# generated using pymatgen
data_Mg2MnAs2
_symmetry_space_group_name_H-M   'P 1'
_cell_length_a   7.28167179
_cell_length_b   7.92370051
_cell_length_c   8.38997400
_cell_angle_alpha   105.38809137
_cell_angle_beta   89.99297179
_cell_angle_gamma   62.48876810
_symmetry_Int_Tables_number   1
_chemical_formula_structural   Mg2MnAs2
_chemical_formula_sum   'Mg8 Mn4 As8'
_cell_volume   409.66799242
_cell_formula_units_Z   4
loop_
 _symmetry_equiv_pos_site_id
 _symmetry_equiv_pos_as_xyz
  1  'x, y, z'
loop_
 _atom_site_type_symbol
 _atom_site_label
 _atom_site_symmetry_multiplicity
 _atom_site_fract_x
 _atom_site_fract_y
 _atom_site_fract_z
 _atom_site_occupancy
  Mg  Mg0  1  0.49902400  0.00177400  0.75048600  1
  Mg  Mg1  1  0.99906100  0.00176500  0.50043000  1
  Mg  Mg2  1  0.49902100  0.00177400  0.25048000  1
  Mg  Mg3  1  0.99906200  0.00176200  0.00042700  1
  Mg  Mg4  1  0.01660300  0.63368000  0.65853600  1
  Mg  Mg5  1  0.51657000  0.63373600  0.40828600  1
  Mg  Mg6  1  0.01660000  0.63368500  0.15853000  1
  Mg  Mg7  1  0.51657400  0.63373400  0.90828200  1
  Mn  Mn8  1  0.48666000  0.36266700  0.59190200  1
  Mn  Mn9  1  0.98664500  0.36225800  0.33915400  1
  Mn  Mn10  1  0.48664800  0.36268100  0.09190400  1
  Mn  Mn11  1  0.98666600  0.36221400  0.83914800  1
  As  As12  1  0.21439500  0.23610300  0.56032600  1
  As  As13  1  0.71409300  0.23611800  0.30796900  1
  As  As14  1  0.21439700  0.23610300  0.06033400  1
  As  As15  1  0.71408800  0.23611300  0.80797300  1
  As  As16  1  0.28345100  0.76598100  0.69154500  1
  As  As17  1  0.78349400  0.76593600  0.44136900  1
  As  As18  1  0.28345100  0.76598000  0.19154400  1
  As  As19  1  0.78349300  0.76593600  0.94137000  1
loop_
 _atom_site_moment_label
 _atom_site_moment_crystalaxis_x
 _atom_site_moment_crystalaxis_y
 _atom_site_moment_crystalaxis_z
  Mg0  0.00217763  -0.00472658  -0.00125283
  Mg1  -0.00054441  0.00118165  0.00031321
  Mg2  -0.00217763  0.00472658  0.00125283
  Mg3  0.00054441  -0.00118165  -0.00031321
  Mg5  -0.00054441  0.00118165  0.00031321
  Mg7  0.00054441  -0.00118165  -0.00031321
  Mn8  2.12264066  -4.60723606  -1.22119870
  Mn9  2.12264066  -4.60723606  -1.22119870
  Mn10  -2.12209625  4.60605442  1.22088549
  Mn11  -2.12264066  4.60723606  1.22119870
  As12  0.00653288  -0.01417975  -0.00375850
  As13  0.00435525  -0.00945316  -0.00250567
  As14  -0.00653288  0.01417975  0.00375850
  As15  -0.00435525  0.00945316  0.00250567
  As16  0.00925491  -0.02008797  -0.00532454
  As17  0.00762169  -0.01654304  -0.00438491
  As18  -0.00925491  0.02008797  0.00532454
  As19  -0.00762169  0.01654304  0.00438491
