# generated using pymatgen
data_Na2Fe3S4
_symmetry_space_group_name_H-M   'P 1'
_cell_length_a   3.73716126
_cell_length_b   7.86869726
_cell_length_c   12.07278408
_cell_angle_alpha   79.57410505
_cell_angle_beta   98.92096246
_cell_angle_gamma   103.76316089
_symmetry_Int_Tables_number   1
_chemical_formula_structural   Na2Fe3S4
_chemical_formula_sum   'Na4 Fe6 S8'
_cell_volume   336.79290301
_cell_formula_units_Z   2
loop_
 _symmetry_equiv_pos_site_id
 _symmetry_equiv_pos_as_xyz
  1  'x, y, z'
loop_
 _atom_site_type_symbol
 _atom_site_label
 _atom_site_symmetry_multiplicity
 _atom_site_fract_x
 _atom_site_fract_y
 _atom_site_fract_z
 _atom_site_occupancy
  Na  Na0  1  0.50874500  0.26136900  0.75646000  1
  Na  Na1  1  0.50771800  0.75999500  0.25556300  1
  Na  Na2  1  0.00479500  0.01098100  0.99869400  1
  Na  Na3  1  0.00689500  0.50970900  0.50426500  1
  Fe  Fe4  1  0.69404300  0.70962500  0.67860700  1
  Fe  Fe5  1  0.30076600  0.77898700  0.82268700  1
  Fe  Fe6  1  0.30551100  0.28555300  0.32497000  1
  Fe  Fe7  1  0.69567800  0.21617200  0.17526700  1
  Fe  Fe8  1  0.79525200  0.52715000  0.06314200  1
  Fe  Fe9  1  0.80157600  0.03810900  0.56537300  1
  S  S10  1  0.13574100  0.53845700  0.73338300  1
  S  S11  1  0.14408400  0.05530200  0.23306600  1
  S  S12  1  0.63284100  0.28026000  0.98536600  1
  S  S13  1  0.64032600  0.78883900  0.49187200  1
  S  S14  1  0.85958800  0.45289300  0.26550900  1
  S  S15  1  0.85994700  0.96094900  0.75892300  1
  S  S16  1  0.36283100  0.70818000  0.01687400  1
  S  S17  1  0.36155500  0.20962700  0.51360700  1
loop_
 _atom_site_moment_label
 _atom_site_moment_crystalaxis_x
 _atom_site_moment_crystalaxis_y
 _atom_site_moment_crystalaxis_z
  Na0  -0.00001605  -0.00199606  -0.00312831
  Na1  -0.00000802  -0.00099803  -0.00156415
  Na2  0.00003209  0.00399212  0.00625662
  Na3  0.00002006  0.00249507  0.00391039
  Fe4  -0.01069514  -1.33037343  -2.08501829
  Fe5  -0.01119660  -1.39275028  -2.18277796
  Fe6  -0.00959193  -1.19314436  -1.86994701
  Fe7  0.01057880  1.31590200  2.06233805
  Fe8  0.01216743  1.51351186  2.37204069
  Fe9  0.01177428  1.46460841  2.29539711
  S10  -0.00051350  -0.06387389  -0.10010590
  S11  0.00019256  0.02395271  0.03753971
  S12  0.00081036  0.10080099  0.15797963
  S13  0.00015244  0.01896256  0.02971894
  S14  0.00003611  0.00449113  0.00703870
  S15  -0.00005215  -0.00648719  -0.01016701
  S16  0.00020861  0.02594877  0.04066802
  S17  0.00020058  0.02495074  0.03910387
