# generated using pymatgen
data_RbFeS2
_symmetry_space_group_name_H-M   'P 1'
_cell_length_a   5.28746328
_cell_length_b   6.93755205
_cell_length_c   7.34412054
_cell_angle_alpha   118.18507711
_cell_angle_beta   111.09786705
_cell_angle_gamma   89.99994431
_symmetry_Int_Tables_number   1
_chemical_formula_structural   RbFeS2
_chemical_formula_sum   'Rb2 Fe2 S4'
_cell_volume   216.75031650
_cell_formula_units_Z   2
loop_
 _symmetry_equiv_pos_site_id
 _symmetry_equiv_pos_as_xyz
  1  'x, y, z'
loop_
 _atom_site_type_symbol
 _atom_site_label
 _atom_site_symmetry_multiplicity
 _atom_site_fract_x
 _atom_site_fract_y
 _atom_site_fract_z
 _atom_site_occupancy
  Rb  Rb0  1  0.32507300  0.32507200  0.65014300  1
  Rb  Rb1  1  0.67492700  0.67492800  0.34985700  1
  Fe  Fe2  1  0.75090600  0.00000100  0.00000100  1
  Fe  Fe3  1  0.24909000  0.99999900  0.99999800  1
  S  S4  1  0.65064200  0.15062100  0.30124200  1
  S  S5  1  0.34936000  0.84938000  0.69876000  1
  S  S6  1  0.00000000  0.74673900  0.00000000  1
  S  S7  1  0.00000000  0.25326100  0.00000000  1
loop_
 _atom_site_moment_label
 _atom_site_moment_crystalaxis_x
 _atom_site_moment_crystalaxis_y
 _atom_site_moment_crystalaxis_z
  Fe2  0.03316186  0.01623870  -2.74721620
  Fe3  -0.03316186  -0.01623870  2.74721620
