# generated using pymatgen
data_KMnSe2
_symmetry_space_group_name_H-M   'P 1'
_cell_length_a   3.96774404
_cell_length_b   3.96774406
_cell_length_c   7.42678800
_cell_angle_alpha   105.49318955
_cell_angle_beta   105.49318962
_cell_angle_gamma   90.00000286
_symmetry_Int_Tables_number   1
_chemical_formula_structural   KMnSe2
_chemical_formula_sum   'K1 Mn1 Se2'
_cell_volume   108.25603855
_cell_formula_units_Z   1
loop_
 _symmetry_equiv_pos_site_id
 _symmetry_equiv_pos_as_xyz
  1  'x, y, z'
loop_
 _atom_site_type_symbol
 _atom_site_label
 _atom_site_symmetry_multiplicity
 _atom_site_fract_x
 _atom_site_fract_y
 _atom_site_fract_z
 _atom_site_occupancy
  K  K0  1  0.00000000  0.00000000  0.00000000  1
  Mn  Mn1  1  0.75000000  0.25000000  0.50000000  1
  Se  Se2  1  0.35362400  0.35362400  0.70724800  1
  Se  Se3  1  0.64637600  0.64637600  0.29275200  1
loop_
 _atom_site_moment_label
 _atom_site_moment_crystalaxis_x
 _atom_site_moment_crystalaxis_y
 _atom_site_moment_crystalaxis_z
  K0  0.00000000  0.00000000  0.00700000
  Mn1  0.00000000  0.00000000  3.77000000
  Se2  0.00000000  0.00000000  -0.06300000
  Se3  0.00000000  0.00000000  -0.06300000
