# generated using pymatgen
data_BaCoS2
_symmetry_space_group_name_H-M   'P 1'
_cell_length_a   6.24909436
_cell_length_b   6.24924781
_cell_length_c   8.95545700
_cell_angle_alpha   90.00013656
_cell_angle_beta   90.00009108
_cell_angle_gamma   89.99767255
_symmetry_Int_Tables_number   1
_chemical_formula_structural   BaCoS2
_chemical_formula_sum   'Ba4 Co4 S8'
_cell_volume   349.72975345
_cell_formula_units_Z   4
loop_
 _symmetry_equiv_pos_site_id
 _symmetry_equiv_pos_as_xyz
  1  'x, y, z'
loop_
 _atom_site_type_symbol
 _atom_site_label
 _atom_site_symmetry_multiplicity
 _atom_site_fract_x
 _atom_site_fract_y
 _atom_site_fract_z
 _atom_site_occupancy
  Ba  Ba0  1  0.25000000  0.74999900  0.20042700  1
  Ba  Ba1  1  0.75000200  0.25000000  0.20057600  1
  Ba  Ba2  1  0.25000000  0.25000100  0.79949600  1
  Ba  Ba3  1  0.75000000  0.75000100  0.79950900  1
  Co  Co4  1  0.74999900  0.25000000  0.58926500  1
  Co  Co5  1  0.75000000  0.75000000  0.41062100  1
  Co  Co6  1  0.24999900  0.75000000  0.58946200  1
  Co  Co7  1  0.25000000  0.24999900  0.41056200  1
  S  S8  1  0.25000100  0.25000000  0.15763800  1
  S  S9  1  0.74999900  0.74999900  0.15769100  1
  S  S10  1  0.24999900  0.75000100  0.84239300  1
  S  S11  1  0.75000000  0.25000000  0.84227500  1
  S  S12  1  0.50005400  0.00003800  0.50003200  1
  S  S13  1  0.99994700  0.49996200  0.50003200  1
  S  S14  1  0.99994500  0.00003000  0.50001100  1
  S  S15  1  0.50005400  0.49996900  0.50001100  1
loop_
 _atom_site_moment_label
 _atom_site_moment_crystalaxis_x
 _atom_site_moment_crystalaxis_y
 _atom_site_moment_crystalaxis_z
  Ba0  0.00000000  0.00000000  0.00100000
  Ba1  0.00000000  0.00000000  -0.00100000
  Ba2  0.00000000  0.00000000  0.00100000
  Ba3  0.00000000  0.00000000  -0.00100000
  Co4  -0.00000110  -0.00000177  -1.39900000
  Co5  -0.00000109  -0.00000175  -1.38500000
  Co6  0.00000110  0.00000176  1.39200000
  Co7  0.00000110  0.00000176  1.39200000
  S8  0.00000005  0.00000008  0.06700000
  S9  -0.00000005  -0.00000008  -0.06700000
  S10  0.00000005  0.00000008  0.06700000
  S11  -0.00000005  -0.00000008  -0.06700000
