# generated using pymatgen
data_Mg(MoS2)2
_symmetry_space_group_name_H-M   'P 1'
_cell_length_a   7.58546400
_cell_length_b   7.58504293
_cell_length_c   7.21962603
_cell_angle_alpha   121.68969050
_cell_angle_beta   58.30819725
_cell_angle_gamma   90.00081389
_symmetry_Int_Tables_number   1
_chemical_formula_structural   Mg(MoS2)2
_chemical_formula_sum   'Mg2 Mo4 S8'
_cell_volume   278.04872598
_cell_formula_units_Z   2
loop_
 _symmetry_equiv_pos_site_id
 _symmetry_equiv_pos_as_xyz
  1  'x, y, z'
loop_
 _atom_site_type_symbol
 _atom_site_label
 _atom_site_symmetry_multiplicity
 _atom_site_fract_x
 _atom_site_fract_y
 _atom_site_fract_z
 _atom_site_occupancy
  Mg  Mg0  1  0.49999900  0.49999800  0.99999700  1
  Mg  Mg1  1  0.25000200  0.25000200  0.50000400  1
  Mo  Mo2  1  0.87500000  0.87500000  0.25000000  1
  Mo  Mo3  1  0.87499500  0.37500500  0.25000600  1
  Mo  Mo4  1  0.87499900  0.87499900  0.74999600  1
  Mo  Mo5  1  0.37500200  0.87499700  0.74999800  1
  S  S6  1  0.66677300  0.61730300  0.23461200  1
  S  S7  1  0.65139200  0.13268300  0.26538000  1
  S  S8  1  0.13269800  0.65139500  0.73458900  1
  S  S9  1  0.13270700  0.08319900  0.73459300  1
  S  S10  1  0.61730200  0.09860600  0.76541100  1
  S  S11  1  0.61729300  0.66680000  0.76541200  1
  S  S12  1  0.08322800  0.13269700  0.26538600  1
  S  S13  1  0.09861000  0.61731600  0.23461600  1
loop_
 _atom_site_moment_label
 _atom_site_moment_crystalaxis_x
 _atom_site_moment_crystalaxis_y
 _atom_site_moment_crystalaxis_z
  Mo2  -2.15100737  -0.00000787  0.00001403
  Mo3  -2.15100737  -0.00000787  0.00001403
  Mo4  2.15100737  0.00000787  -0.00001403
  Mo5  2.15100737  0.00000787  -0.00001403
  S6  -0.00400001  -0.00000001  0.00000003
  S7  -0.00400001  -0.00000001  0.00000003
  S8  0.00400001  0.00000001  -0.00000003
  S9  0.00400001  0.00000001  -0.00000003
  S10  0.00400001  0.00000001  -0.00000003
  S11  0.00400001  0.00000001  -0.00000003
  S12  -0.00400001  -0.00000001  0.00000003
  S13  -0.00400001  -0.00000001  0.00000003
