# generated using pymatgen
data_GaFe
_symmetry_space_group_name_H-M   'P 1'
_cell_length_a   2.74271983
_cell_length_b   8.16904500
_cell_length_c   2.74658139
_cell_angle_alpha   89.99679748
_cell_angle_beta   59.99111174
_cell_angle_gamma   89.99675955
_symmetry_Int_Tables_number   1
_chemical_formula_structural   GaFe
_chemical_formula_sum   'Ga2 Fe2'
_cell_volume   53.28892198
_cell_formula_units_Z   2
loop_
 _symmetry_equiv_pos_site_id
 _symmetry_equiv_pos_as_xyz
  1  'x, y, z'
loop_
 _atom_site_type_symbol
 _atom_site_label
 _atom_site_symmetry_multiplicity
 _atom_site_fract_x
 _atom_site_fract_y
 _atom_site_fract_z
 _atom_site_occupancy
  Ga  Ga0  1  0.00000400  0.25005000  0.99999600  1
  Ga  Ga1  1  0.00000600  0.74995100  0.99999500  1
  Fe  Fe2  1  0.66667300  0.50000000  0.66667400  1
  Fe  Fe3  1  0.66665100  0.00000000  0.66666800  1
loop_
 _atom_site_moment_label
 _atom_site_moment_crystalaxis_x
 _atom_site_moment_crystalaxis_y
 _atom_site_moment_crystalaxis_z
  Fe2  0.00004466  -2.36100000  0.00004344
  Fe3  -0.00004468  2.36200000  -0.00004346
