# generated using pymatgen
data_MnGe2
_symmetry_space_group_name_H-M   'P 1'
_cell_length_a   4.89081842
_cell_length_b   4.89019693
_cell_length_c   4.88886182
_cell_angle_alpha   105.16309192
_cell_angle_beta   105.24290370
_cell_angle_gamma   118.39724880
_symmetry_Int_Tables_number   1
_chemical_formula_structural   MnGe2
_chemical_formula_sum   'Mn2 Ge4'
_cell_volume   88.34553611
_cell_formula_units_Z   2
loop_
 _symmetry_equiv_pos_site_id
 _symmetry_equiv_pos_as_xyz
  1  'x, y, z'
loop_
 _atom_site_type_symbol
 _atom_site_label
 _atom_site_symmetry_multiplicity
 _atom_site_fract_x
 _atom_site_fract_y
 _atom_site_fract_z
 _atom_site_occupancy
  Mn  Mn0  1  0.75000800  0.75003000  0.00004600  1
  Mn  Mn1  1  0.24999100  0.24997100  0.99995400  1
  Ge  Ge2  1  0.65620100  0.15629900  0.81248900  1
  Ge  Ge3  1  0.15616300  0.34375400  0.49992200  1
  Ge  Ge4  1  0.84383700  0.65624600  0.50007800  1
  Ge  Ge5  1  0.34379900  0.84370100  0.18751100  1
loop_
 _atom_site_moment_label
 _atom_site_moment_crystalaxis_x
 _atom_site_moment_crystalaxis_y
 _atom_site_moment_crystalaxis_z
  Mn0  0.03050734  0.02970408  1.71958443
  Mn1  0.02957637  0.02879761  1.66710885
  Ge2  -0.00150388  -0.00146429  -0.08476825
  Ge3  -0.00150388  -0.00146429  -0.08476825
  Ge4  -0.00150388  -0.00146429  -0.08476825
  Ge5  -0.00150388  -0.00146429  -0.08476825
