# generated using pymatgen
data_CsMnTe2
_symmetry_space_group_name_H-M   'P 1'
_cell_length_a   4.50327941
_cell_length_b   4.50328032
_cell_length_c   8.17063800
_cell_angle_alpha   105.99639617
_cell_angle_beta   105.99639948
_cell_angle_gamma   90.00000456
_symmetry_Int_Tables_number   1
_chemical_formula_structural   CsMnTe2
_chemical_formula_sum   'Cs1 Mn1 Te2'
_cell_volume   152.59529507
_cell_formula_units_Z   1
loop_
 _symmetry_equiv_pos_site_id
 _symmetry_equiv_pos_as_xyz
  1  'x, y, z'
loop_
 _atom_site_type_symbol
 _atom_site_label
 _atom_site_symmetry_multiplicity
 _atom_site_fract_x
 _atom_site_fract_y
 _atom_site_fract_z
 _atom_site_occupancy
  Cs  Cs0  1  0.00000000  0.00000000  0.00000000  1
  Mn  Mn1  1  0.75000000  0.25000000  0.50000000  1
  Te  Te2  1  0.34237900  0.34237900  0.68475800  1
  Te  Te3  1  0.65762100  0.65762100  0.31524200  1
loop_
 _atom_site_moment_label
 _atom_site_moment_crystalaxis_x
 _atom_site_moment_crystalaxis_y
 _atom_site_moment_crystalaxis_z
  Cs0  0.00000000  0.00000000  0.00500000
  Mn1  0.00000000  0.00000000  3.85100000
  Te2  0.00000000  0.00000000  -0.09500000
  Te3  0.00000000  0.00000000  -0.09500000
