# generated using pymatgen
data_Mg2CuAs2
_symmetry_space_group_name_H-M   'P 1'
_cell_length_a   14.01782201
_cell_length_b   14.01814021
_cell_length_c   31.23569600
_cell_angle_alpha   89.99992689
_cell_angle_beta   89.99937139
_cell_angle_gamma   89.99801157
_symmetry_Int_Tables_number   1
_chemical_formula_structural   Mg2CuAs2
_chemical_formula_sum   'Mg4 Cu2 As4'
_cell_volume   6137.93278014
_cell_formula_units_Z   2
loop_
 _symmetry_equiv_pos_site_id
 _symmetry_equiv_pos_as_xyz
  1  'x, y, z'
loop_
 _atom_site_type_symbol
 _atom_site_label
 _atom_site_symmetry_multiplicity
 _atom_site_fract_x
 _atom_site_fract_y
 _atom_site_fract_z
 _atom_site_occupancy
  Mg  Mg0  1  0.50000000  0.00000000  0.24991000  1
  Mg  Mg1  1  0.00000000  0.50000000  0.24990200  1
  Mg  Mg2  1  0.50000000  0.00000000  0.75009300  1
  Mg  Mg3  1  0.00000000  0.50000000  0.75009600  1
  Cu  Cu4  1  0.00000000  0.50000000  0.00000000  1
  Cu  Cu5  1  0.50000000  0.00000000  0.00000000  1
  As  As6  1  0.50000000  0.00000000  0.66490700  1
  As  As7  1  0.00000000  0.50000000  0.66491100  1
  As  As8  1  0.50000000  0.00000000  0.33509100  1
  As  As9  1  0.00000000  0.50000000  0.33509000  1
loop_
 _atom_site_moment_label
 _atom_site_moment_crystalaxis_x
 _atom_site_moment_crystalaxis_y
 _atom_site_moment_crystalaxis_z
  Mg0  -0.00000049  -0.00000006  0.08900000
  Mg1  -0.00000049  -0.00000006  0.08900000
  Mg2  -0.00000049  -0.00000006  0.08900000
  Mg3  -0.00000049  -0.00000006  0.08900000
  Cu4  0.00000099  0.00000011  -0.18100000
  Cu5  0.00000099  0.00000011  -0.18100000
  As6  -0.00000512  -0.00000059  0.93400000
  As7  -0.00000512  -0.00000059  0.93400000
  As8  -0.00000512  -0.00000059  0.93400000
  As9  -0.00000512  -0.00000059  0.93400000
