# generated using pymatgen
data_Mn3Ge
_symmetry_space_group_name_H-M   'P 1'
_cell_length_a   4.21844001
_cell_length_b   5.15363258
_cell_length_c   5.15403637
_cell_angle_alpha   60.00338275
_cell_angle_beta   89.99343475
_cell_angle_gamma   89.99360485
_symmetry_Int_Tables_number   1
_chemical_formula_structural   Mn3Ge
_chemical_formula_sum   'Mn6 Ge2'
_cell_volume   97.04166526
_cell_formula_units_Z   2
loop_
 _symmetry_equiv_pos_site_id
 _symmetry_equiv_pos_as_xyz
  1  'x, y, z'
loop_
 _atom_site_type_symbol
 _atom_site_label
 _atom_site_symmetry_multiplicity
 _atom_site_fract_x
 _atom_site_fract_y
 _atom_site_fract_z
 _atom_site_occupancy
  Mn  Mn0  1  0.75000400  0.16340600  0.67316300  1
  Mn  Mn1  1  0.74998500  0.16331800  0.16343800  1
  Mn  Mn2  1  0.75000500  0.67325500  0.16342200  1
  Mn  Mn3  1  0.24999400  0.83654700  0.32685200  1
  Mn  Mn4  1  0.25001300  0.83663600  0.83662900  1
  Mn  Mn5  1  0.24999700  0.32673400  0.83660200  1
  Ge  Ge6  1  0.25000000  0.33335100  0.33337400  1
  Ge  Ge7  1  0.75000100  0.66675300  0.66652100  1
loop_
 _atom_site_moment_label
 _atom_site_moment_crystalaxis_x
 _atom_site_moment_crystalaxis_y
 _atom_site_moment_crystalaxis_z
  Mn0  -1.93600001  0.00006985  0.00007535
  Mn1  -1.93900001  0.00006996  0.00007547
  Mn2  -1.93700001  0.00006989  0.00007539
  Mn3  1.93600001  -0.00006985  -0.00007535
  Mn4  1.93800001  -0.00006992  -0.00007543
  Mn5  1.93800001  -0.00006992  -0.00007543
  Ge6  -0.02500000  0.00000090  0.00000097
  Ge7  0.02500000  -0.00000090  -0.00000097
