# generated using pymatgen
data_Cr2Se3
_symmetry_space_group_name_H-M   'P 1'
_cell_length_a   6.82011638
_cell_length_b   7.23855030
_cell_length_c   8.53926151
_cell_angle_alpha   90.43585823
_cell_angle_beta   104.89880858
_cell_angle_gamma   104.89833233
_symmetry_Int_Tables_number   1
_chemical_formula_structural   Cr2Se3
_chemical_formula_sum   'Cr8 Se12'
_cell_volume   392.46846945
_cell_formula_units_Z   4
loop_
 _symmetry_equiv_pos_site_id
 _symmetry_equiv_pos_as_xyz
  1  'x, y, z'
loop_
 _atom_site_type_symbol
 _atom_site_label
 _atom_site_symmetry_multiplicity
 _atom_site_fract_x
 _atom_site_fract_y
 _atom_site_fract_z
 _atom_site_occupancy
  Cr  Cr0  1  0.18003300  0.43556700  0.66949800  1
  Cr  Cr1  1  0.18405700  0.90869800  0.68204200  1
  Cr  Cr2  1  0.81635600  0.10591700  0.31534800  1
  Cr  Cr3  1  0.16889200  0.67188700  0.18065400  1
  Cr  Cr4  1  0.49643500  0.23551500  0.01921700  1
  Cr  Cr5  1  0.48804900  0.75489100  0.97719700  1
  Cr  Cr6  1  0.82750600  0.55924000  0.33775800  1
  Cr  Cr7  1  0.83765800  0.32862600  0.81973200  1
  Se  Se8  1  0.77192200  0.06768500  0.01733800  1
  Se  Se9  1  0.21812800  0.93049700  0.98052400  1
  Se  Se10  1  0.12155200  0.40077300  0.36473900  1
  Se  Se11  1  0.89271500  0.60099800  0.63966600  1
  Se  Se12  1  0.45237700  0.73919900  0.68428100  1
  Se  Se13  1  0.54218300  0.26343500  0.31415300  1
  Se  Se14  1  0.56643400  0.76845000  0.28875200  1
  Se  Se15  1  0.44262000  0.23465500  0.70787500  1
  Se  Se16  1  0.90925800  0.10805100  0.62617000  1
  Se  Se17  1  0.08631400  0.89243500  0.37034600  1
  Se  Se18  1  0.22568400  0.43140200  0.97987600  1
  Se  Se19  1  0.77182800  0.56208000  0.02483500  1
loop_
 _atom_site_moment_label
 _atom_site_moment_crystalaxis_x
 _atom_site_moment_crystalaxis_y
 _atom_site_moment_crystalaxis_z
  Cr0  -0.02009907  -0.00293111  -2.69612400
  Cr1  -0.02031567  -0.00296270  -2.72517922
  Cr2  -0.01980778  -0.00288863  -2.65704974
  Cr3  -0.02097294  -0.00305855  -2.81334678
  Cr4  0.02041277  0.00297686  2.73820397
  Cr5  0.01981525  0.00288972  2.65805164
  Cr6  0.01986006  0.00289625  2.66406307
  Cr7  0.02092066  0.00305092  2.80633345
  Se8  -0.00038839  -0.00005664  -0.05209901
  Se9  -0.00010457  -0.00001525  -0.01402666
  Se10  0.00042573  0.00006209  0.05710854
  Se12  0.00024648  0.00003594  0.03306284
  Se13  -0.00020913  -0.00003050  -0.02805332
  Se14  0.00002241  0.00000327  0.00300571
  Se15  -0.00001494  -0.00000218  -0.00200381
  Se16  0.00032864  0.00004793  0.04408378
  Se17  0.00039586  0.00005773  0.05310092
  Se18  -0.00011203  -0.00001634  -0.01502856
  Se19  -0.00042573  -0.00006209  -0.05710854
