# generated using pymatgen
data_CaMnS2
_symmetry_space_group_name_H-M   'P 1'
_cell_length_a   6.60730996
_cell_length_b   7.73496710
_cell_length_c   6.69867778
_cell_angle_alpha   89.99999777
_cell_angle_beta   109.75158472
_cell_angle_gamma   90.00000190
_symmetry_Int_Tables_number   1
_chemical_formula_structural   CaMnS2
_chemical_formula_sum   'Ca4 Mn4 S8'
_cell_volume   322.20982361
_cell_formula_units_Z   4
loop_
 _symmetry_equiv_pos_site_id
 _symmetry_equiv_pos_as_xyz
  1  'x, y, z'
loop_
 _atom_site_type_symbol
 _atom_site_label
 _atom_site_symmetry_multiplicity
 _atom_site_fract_x
 _atom_site_fract_y
 _atom_site_fract_z
 _atom_site_occupancy
  Ca  Ca0  1  0.00000000  0.00000000  0.00000000  1
  Ca  Ca1  1  0.00000000  0.25000000  0.50000000  1
  Ca  Ca2  1  0.00000000  0.50000000  0.00000000  1
  Ca  Ca3  1  0.00000000  0.75000000  0.50000000  1
  Mn  Mn4  1  0.50000000  0.00000000  0.50000000  1
  Mn  Mn5  1  0.50000000  0.25000000  0.00000000  1
  Mn  Mn6  1  0.50000000  0.50000000  0.50000000  1
  Mn  Mn7  1  0.50000000  0.75000000  0.00000000  1
  S  S8  1  0.27439000  0.25000000  0.25813000  1
  S  S9  1  0.27439000  0.50000000  0.75813000  1
  S  S10  1  0.27439000  0.75000000  0.25813000  1
  S  S11  1  0.27439000  0.00000000  0.75813000  1
  S  S12  1  0.72561000  0.75000000  0.74187000  1
  S  S13  1  0.72561000  0.00000000  0.24187000  1
  S  S14  1  0.72561000  0.25000000  0.74187000  1
  S  S15  1  0.72561000  0.50000000  0.24187000  1
loop_
 _atom_site_moment_label
 _atom_site_moment_crystalaxis_x
 _atom_site_moment_crystalaxis_y
 _atom_site_moment_crystalaxis_z
  Ca0  0.00900000  0.00263400  0.00456223
  Ca1  0.00900000  0.00263400  0.00456223
  Ca2  -0.00900000  -0.00263400  -0.00456223
  Ca3  -0.00900000  -0.00263400  -0.00456223
  Mn4  -4.31299992  -1.26227304  -2.18632068
  Mn5  -4.31299992  -1.26227304  -2.18632068
  Mn6  4.31299992  1.26227304  2.18632068
  Mn7  4.31299992  1.26227304  2.18632068
  S8  -0.02200000  -0.00643868  -0.01115211
  S9  0.02200000  0.00643868  0.01115211
  S10  0.02200000  0.00643868  0.01115211
  S11  -0.02200000  -0.00643868  -0.01115211
  S12  0.02200000  0.00643868  0.01115211
  S13  -0.02200000  -0.00643868  -0.01115211
  S14  -0.02200000  -0.00643868  -0.01115211
  S15  0.02200000  0.00643868  0.01115211
