# generated using pymatgen
data_CsMnAs
_symmetry_space_group_name_H-M   'P 1'
_cell_length_a   4.33097500
_cell_length_b   4.33098000
_cell_length_c   18.78466800
_cell_angle_alpha   90.00007934
_cell_angle_beta   89.99997457
_cell_angle_gamma   90.00000000
_symmetry_Int_Tables_number   1
_chemical_formula_structural   CsMnAs
_chemical_formula_sum   'Cs4 Mn4 As4'
_cell_volume   352.35089485
_cell_formula_units_Z   4
loop_
 _symmetry_equiv_pos_site_id
 _symmetry_equiv_pos_as_xyz
  1  'x, y, z'
loop_
 _atom_site_type_symbol
 _atom_site_label
 _atom_site_symmetry_multiplicity
 _atom_site_fract_x
 _atom_site_fract_y
 _atom_site_fract_z
 _atom_site_occupancy
  Cs  Cs0  1  0.99999900  0.50000100  0.33171900  1
  Cs  Cs1  1  0.00000000  0.50000000  0.83171900  1
  Cs  Cs2  1  0.50000000  0.99999900  0.16828000  1
  Cs  Cs3  1  0.49999900  0.00000100  0.66828100  1
  Mn  Mn4  1  0.50000000  0.50000000  0.49999900  1
  Mn  Mn5  1  0.00000200  0.00000000  0.00000100  1
  Mn  Mn6  1  0.50000000  0.50000000  0.00000100  1
  Mn  Mn7  1  0.00000000  0.99999900  0.50000000  1
  As  As8  1  0.00000000  0.50000000  0.07295600  1
  As  As9  1  0.99999900  0.50000000  0.57295700  1
  As  As10  1  0.50000000  0.00000100  0.42704200  1
  As  As11  1  0.50000100  0.99999900  0.92704500  1
loop_
 _atom_site_moment_label
 _atom_site_moment_crystalaxis_x
 _atom_site_moment_crystalaxis_y
 _atom_site_moment_crystalaxis_z
  Mn4  0.00000079  -0.00000257  -3.70900000
  Mn5  0.00000079  -0.00000257  -3.71000000
  Mn6  -0.00000079  0.00000257  3.70800000
  Mn7  -0.00000079  0.00000257  3.71000000
  As8  0.00000000  0.00000000  0.00100000
  As11  0.00000000  0.00000000  0.00100000
