# generated using pymatgen
data_Ca(MnAl2)4
_symmetry_space_group_name_H-M   'P 1'
_cell_length_a   5.00352822
_cell_length_b   6.75403060
_cell_length_c   6.75286955
_cell_angle_alpha   81.89437300
_cell_angle_beta   111.77222376
_cell_angle_gamma   111.78800748
_symmetry_Int_Tables_number   1
_chemical_formula_structural   Ca(MnAl2)4
_chemical_formula_sum   'Ca1 Mn4 Al8'
_cell_volume   196.78662035
_cell_formula_units_Z   1
loop_
 _symmetry_equiv_pos_site_id
 _symmetry_equiv_pos_as_xyz
  1  'x, y, z'
loop_
 _atom_site_type_symbol
 _atom_site_label
 _atom_site_symmetry_multiplicity
 _atom_site_fract_x
 _atom_site_fract_y
 _atom_site_fract_z
 _atom_site_occupancy
  Ca  Ca0  1  0.00000000  0.00000000  0.00000000  1
  Mn  Mn1  1  0.99999800  0.50000000  0.00000000  1
  Mn  Mn2  1  0.00000000  0.00000000  0.50000000  1
  Mn  Mn3  1  0.50000100  0.50000000  0.00000000  1
  Mn  Mn4  1  0.50000000  0.00000000  0.50000000  1
  Al  Al5  1  0.99996500  0.33768100  0.66236200  1
  Al  Al6  1  0.00003600  0.66231900  0.33763900  1
  Al  Al7  1  0.65763500  0.65807200  0.65810300  1
  Al  Al8  1  0.34236400  0.34192900  0.34189500  1
  Al  Al9  1  0.72333600  0.22426700  0.22419600  1
  Al  Al10  1  0.50009300  0.22511000  0.77496200  1
  Al  Al11  1  0.27666400  0.77573300  0.77580400  1
  Al  Al12  1  0.49990700  0.77489100  0.22503700  1
loop_
 _atom_site_moment_label
 _atom_site_moment_crystalaxis_x
 _atom_site_moment_crystalaxis_y
 _atom_site_moment_crystalaxis_z
  Ca0  -0.00075326  0.00000174  -0.00099366
  Mn1  -0.70957296  0.00164129  -0.93602808
  Mn2  -0.71183275  0.00164651  -0.93900906
  Mn3  0.72614473  -0.00167962  0.95788860
  Mn4  0.72463821  -0.00167613  0.95590128
  Al5  0.00075326  -0.00000174  0.00099366
  Al6  0.00075326  -0.00000174  0.00099366
  Al7  -0.00075326  0.00000174  -0.00099366
  Al8  -0.00075326  0.00000174  -0.00099366
