# generated using pymatgen
data_Ba(FeSe2)2
_symmetry_space_group_name_H-M   'P 1'
_cell_length_a   5.39614035
_cell_length_b   6.33520499
_cell_length_c   6.33571278
_cell_angle_alpha   100.44245275
_cell_angle_beta   64.80264486
_cell_angle_gamma   115.20436164
_symmetry_Int_Tables_number   1
_chemical_formula_structural   Ba(FeSe2)2
_chemical_formula_sum   'Ba1 Fe2 Se4'
_cell_volume   177.32273324
_cell_formula_units_Z   1
loop_
 _symmetry_equiv_pos_site_id
 _symmetry_equiv_pos_as_xyz
  1  'x, y, z'
loop_
 _atom_site_type_symbol
 _atom_site_label
 _atom_site_symmetry_multiplicity
 _atom_site_fract_x
 _atom_site_fract_y
 _atom_site_fract_z
 _atom_site_occupancy
  Ba  Ba0  1  0.50000000  0.99999800  0.00000500  1
  Fe  Fe1  1  0.24999700  0.50004200  0.49999900  1
  Fe  Fe2  1  0.75000500  0.49996100  0.49999600  1
  Se  Se3  1  0.29834000  0.17734200  0.58074300  1
  Se  Se4  1  0.70178600  0.82267300  0.41926700  1
  Se  Se5  1  0.87894700  0.58073700  0.82266200  1
  Se  Se6  1  0.12092700  0.41924700  0.17732900  1
loop_
 _atom_site_moment_label
 _atom_site_moment_crystalaxis_x
 _atom_site_moment_crystalaxis_y
 _atom_site_moment_crystalaxis_z
  Fe1  0.00233406  0.00011462  -2.76197214
  Fe2  -0.00233236  -0.00011454  2.75997144
  Se3  -0.00000085  -0.00000004  0.00100035
