# generated using pymatgen
data_Cr5Se8
_symmetry_space_group_name_H-M   'P 1'
_cell_length_a   6.80499628
_cell_length_b   12.36150913
_cell_length_c   6.80498497
_cell_angle_alpha   91.13009854
_cell_angle_beta   63.61911367
_cell_angle_gamma   91.12970765
_symmetry_Int_Tables_number   1
_chemical_formula_structural   Cr5Se8
_chemical_formula_sum   'Cr10 Se16'
_cell_volume   512.68400391
_cell_formula_units_Z   2
loop_
 _symmetry_equiv_pos_site_id
 _symmetry_equiv_pos_as_xyz
  1  'x, y, z'
loop_
 _atom_site_type_symbol
 _atom_site_label
 _atom_site_symmetry_multiplicity
 _atom_site_fract_x
 _atom_site_fract_y
 _atom_site_fract_z
 _atom_site_occupancy
  Cr  Cr0  1  0.25461800  0.98906600  0.25461600  1
  Cr  Cr1  1  0.74185500  0.00362600  0.74185900  1
  Cr  Cr2  1  0.24537500  0.51020400  0.24537700  1
  Cr  Cr3  1  0.97264800  0.25499500  0.52966200  1
  Cr  Cr4  1  0.52965300  0.25499400  0.97264900  1
  Cr  Cr5  1  0.99916600  0.99918600  0.99916200  1
  Cr  Cr6  1  0.49373300  0.50227300  0.49373300  1
  Cr  Cr7  1  0.76112900  0.48720500  0.76112900  1
  Cr  Cr8  1  0.47098000  0.75113600  0.02727400  1
  Cr  Cr9  1  0.02728300  0.75113300  0.47097800  1
  Se  Se10  1  0.14289100  0.16299000  0.14289000  1
  Se  Se11  1  0.64275700  0.65930900  0.64275900  1
  Se  Se12  1  0.35813100  0.33769500  0.35812900  1
  Se  Se13  1  0.86183700  0.83487800  0.86183900  1
  Se  Se14  1  0.61978900  0.16472100  0.61978500  1
  Se  Se15  1  0.11521600  0.66680800  0.11521900  1
  Se  Se16  1  0.89014400  0.33166700  0.89014900  1
  Se  Se17  1  0.38528700  0.83239800  0.38528800  1
  Se  Se18  1  0.62512900  0.08536100  0.11788000  1
  Se  Se19  1  0.12607200  0.58751300  0.62726000  1
  Se  Se20  1  0.11788100  0.08536000  0.62512800  1
  Se  Se21  1  0.62725700  0.58751200  0.12607300  1
  Se  Se22  1  0.87007600  0.41667600  0.37740600  1
  Se  Se23  1  0.37009700  0.91330800  0.87359100  1
  Se  Se24  1  0.37740500  0.41667600  0.87007600  1
  Se  Se25  1  0.87359400  0.91330900  0.37009400  1
loop_
 _atom_site_moment_label
 _atom_site_moment_crystalaxis_x
 _atom_site_moment_crystalaxis_y
 _atom_site_moment_crystalaxis_z
  Cr0  -1.06899155  -1.97447178  -1.06900486
  Cr1  -1.09640159  -2.02509926  -1.09641524
  Cr2  -1.03795372  -1.91714360  -1.03796664
  Cr3  -1.04158151  -1.92384429  -1.04159448
  Cr4  -1.04238769  -1.92533334  -1.04240067
  Cr5  1.11373441  2.05711369  1.11374828
  Cr6  1.12381163  2.07572674  1.12382563
  Cr7  1.08551820  2.00499717  1.08553171
  Cr8  1.04924020  1.93799021  1.04925327
  Cr9  1.05125565  1.94171282  1.05126873
  Se10  0.02982857  0.05509461  0.02982894
  Se11  -0.05280464  -0.09753235  -0.05280529
  Se12  0.02539460  0.04690487  0.02539491
  Se13  -0.02579768  -0.04764939  -0.02579801
  Se14  0.05643243  0.10423305  0.05643314
  Se15  -0.03184402  -0.05881722  -0.03184441
  Se16  0.02337915  0.04318226  0.02337944
  Se17  -0.02821622  -0.05211652  -0.02821657
  Se18  0.01975135  0.03648157  0.01975160
  Se19  -0.01934826  -0.03573705  -0.01934850
  Se20  0.01975135  0.03648157  0.01975160
  Se21  -0.01934826  -0.03573705  -0.01934850
  Se22  -0.00201544  -0.00372261  -0.00201547
  Se23  -0.00201544  -0.00372261  -0.00201547
  Se24  -0.00201544  -0.00372261  -0.00201547
  Se25  -0.00201544  -0.00372261  -0.00201547
