# generated using pymatgen
data_V3Te4
_symmetry_space_group_name_H-M   'P 1'
_cell_length_a   3.83851414
_cell_length_b   7.30129442
_cell_length_c   12.29800832
_cell_angle_alpha   95.31792605
_cell_angle_beta   98.98409830
_cell_angle_gamma   74.77042738
_symmetry_Int_Tables_number   1
_chemical_formula_structural   V3Te4
_chemical_formula_sum   'V6 Te8'
_cell_volume   327.99828897
_cell_formula_units_Z   2
loop_
 _symmetry_equiv_pos_site_id
 _symmetry_equiv_pos_as_xyz
  1  'x, y, z'
loop_
 _atom_site_type_symbol
 _atom_site_label
 _atom_site_symmetry_multiplicity
 _atom_site_fract_x
 _atom_site_fract_y
 _atom_site_fract_z
 _atom_site_occupancy
  V  V0  1  0.00001000  0.99998500  0.99999900  1
  V  V1  1  0.74693700  0.35868900  0.85237300  1
  V  V2  1  0.25308200  0.64130500  0.14764700  1
  V  V3  1  0.00002000  0.49997700  0.50001500  1
  V  V4  1  0.74690100  0.85873700  0.35230400  1
  V  V5  1  0.25309400  0.14125400  0.64767900  1
  Te  Te6  1  0.36358000  0.28771600  0.01469200  1
  Te  Te7  1  0.36368100  0.78762000  0.51476500  1
  Te  Te8  1  0.63635700  0.21234100  0.48526200  1
  Te  Te9  1  0.63637800  0.71232000  0.98528900  1
  Te  Te10  1  0.89044600  0.49374600  0.27504700  1
  Te  Te11  1  0.89050500  0.99365500  0.77506200  1
  Te  Te12  1  0.10947600  0.00639200  0.22490300  1
  Te  Te13  1  0.10953400  0.50626500  0.72496400  1
loop_
 _atom_site_moment_label
 _atom_site_moment_crystalaxis_x
 _atom_site_moment_crystalaxis_y
 _atom_site_moment_crystalaxis_z
  V0  -0.00248122  -1.03617707  -1.76016577
  V1  -0.00215808  -0.90123062  -1.53093070
  V2  -0.00216188  -0.90281822  -1.53362758
  V3  0.00248248  1.03670627  1.76106473
  V4  0.00216188  0.90281822  1.53362758
  V5  0.00215681  0.90070142  1.53003174
  Te6  0.00010264  0.04286534  0.07281585
  Te7  -0.00010264  -0.04286534  -0.07281585
  Te8  -0.00010264  -0.04286534  -0.07281585
  Te9  0.00010264  0.04286534  0.07281585
  Te10  0.00000127  0.00052920  0.00089896
  Te11  -0.00000127  -0.00052920  -0.00089896
  Te12  -0.00000127  -0.00052920  -0.00089896
  Te13  0.00000127  0.00052920  0.00089896
