# generated using pymatgen
data_CsCr5S8
_symmetry_space_group_name_H-M   'P 1'
_cell_length_a   3.50725598
_cell_length_b   11.26745972
_cell_length_c   14.24492708
_cell_angle_alpha   86.91859347
_cell_angle_beta   97.04413437
_cell_angle_gamma   98.96899120
_symmetry_Int_Tables_number   1
_chemical_formula_structural   CsCr5S8
_chemical_formula_sum   'Cs2 Cr10 S16'
_cell_volume   551.50450332
_cell_formula_units_Z   2
loop_
 _symmetry_equiv_pos_site_id
 _symmetry_equiv_pos_as_xyz
  1  'x, y, z'
loop_
 _atom_site_type_symbol
 _atom_site_label
 _atom_site_symmetry_multiplicity
 _atom_site_fract_x
 _atom_site_fract_y
 _atom_site_fract_z
 _atom_site_occupancy
  Cs  Cs0  1  0.00000700  0.24999200  0.75000600  1
  Cs  Cs1  1  0.99999500  0.75001100  0.24999600  1
  Cr  Cr2  1  0.99999900  0.50000000  0.50000200  1
  Cr  Cr3  1  0.33435400  0.33454100  0.33471600  1
  Cr  Cr4  1  0.66565600  0.66544900  0.66528800  1
  Cr  Cr5  1  0.29506800  0.62935000  0.96050900  1
  Cr  Cr6  1  0.70491600  0.37061700  0.03949900  1
  Cr  Cr7  1  0.00000000  0.00000100  0.99999300  1
  Cr  Cr8  1  0.33435200  0.83455200  0.83471900  1
  Cr  Cr9  1  0.66562600  0.16545600  0.16527300  1
  Cr  Cr10  1  0.29508600  0.12938300  0.46050200  1
  Cr  Cr11  1  0.70494500  0.87065600  0.53950600  1
  S  S12  1  0.57389600  0.15163200  0.99610200  1
  S  S13  1  0.57391800  0.65164700  0.49611300  1
  S  S14  1  0.42608100  0.84835700  0.00387700  1
  S  S15  1  0.42610100  0.34836500  0.50389600  1
  S  S16  1  0.09621100  0.52595600  0.66671400  1
  S  S17  1  0.09618700  0.02597800  0.16669200  1
  S  S18  1  0.90379500  0.47403600  0.33329000  1
  S  S19  1  0.90379200  0.97402400  0.83329200  1
  S  S20  1  0.17797200  0.42140700  0.93422500  1
  S  S21  1  0.17800900  0.92144500  0.43424100  1
  S  S22  1  0.82201100  0.57855700  0.06578300  1
  S  S23  1  0.82202700  0.07858800  0.56576600  1
  S  S24  1  0.24228900  0.32338200  0.16096300  1
  S  S25  1  0.24229800  0.82336600  0.66096600  1
  S  S26  1  0.75770600  0.67662700  0.83903700  1
  S  S27  1  0.75770200  0.17661900  0.33903500  1
loop_
 _atom_site_moment_label
 _atom_site_moment_crystalaxis_x
 _atom_site_moment_crystalaxis_y
 _atom_site_moment_crystalaxis_z
  Cr2  -0.00158422  -1.73941825  -2.17778631
  Cr3  -0.00152327  -1.67249414  -2.09399600
  Cr4  -0.00152548  -1.67492775  -2.09704292
  Cr5  -0.00154876  -1.70048059  -2.12903558
  Cr6  -0.00155042  -1.70230579  -2.13132077
  Cr7  0.00158422  1.73941825  2.17778631
  Cr8  0.00152493  1.67431935  2.09628119
  Cr9  0.00152327  1.67249414  2.09399600
  Cr10  0.00155097  1.70291419  2.13208250
  Cr11  0.00154876  1.70048059  2.12903558
  S12  -0.00003546  -0.03893766  -0.04875073
  S13  0.00003546  0.03893766  0.04875073
  S14  -0.00003546  -0.03893766  -0.04875073
  S15  0.00003546  0.03893766  0.04875073
  S16  0.00004765  0.05232248  0.06550879
  S17  -0.00004710  -0.05171408  -0.06474706
  S18  0.00004710  0.05171408  0.06474706
  S19  -0.00004765  -0.05232248  -0.06550879
  S20  0.00006262  0.06874930  0.08607550
  S21  -0.00006262  -0.06874930  -0.08607550
  S22  0.00006262  0.06874930  0.08607550
  S23  -0.00006262  -0.06874930  -0.08607550
  S24  0.00000499  0.00547561  0.00685557
  S25  -0.00000499  -0.00547561  -0.00685557
  S26  0.00000499  0.00547561  0.00685557
  S27  -0.00000499  -0.00547561  -0.00685557
