# generated using pymatgen
data_K2MnBi2
_symmetry_space_group_name_H-M   'P 1'
_cell_length_a   6.32124221
_cell_length_b   14.08539629
_cell_length_c   12.21310814
_cell_angle_alpha   88.49321469
_cell_angle_beta   47.28761084
_cell_angle_gamma   84.34597673
_symmetry_Int_Tables_number   1
_chemical_formula_structural   K2MnBi2
_chemical_formula_sum   'K8 Mn4 Bi8'
_cell_volume   793.89224447
_cell_formula_units_Z   4
loop_
 _symmetry_equiv_pos_site_id
 _symmetry_equiv_pos_as_xyz
  1  'x, y, z'
loop_
 _atom_site_type_symbol
 _atom_site_label
 _atom_site_symmetry_multiplicity
 _atom_site_fract_x
 _atom_site_fract_y
 _atom_site_fract_z
 _atom_site_occupancy
  K  K0  1  0.75477500  0.54353300  0.35036400  1
  K  K1  1  0.50658900  0.38135000  0.20408900  1
  K  K2  1  0.75454500  0.04347000  0.35052800  1
  K  K3  1  0.50679100  0.88135800  0.20413900  1
  K  K4  1  0.74793500  0.70433000  0.64849700  1
  K  K5  1  0.99310200  0.36892800  0.79536200  1
  K  K6  1  0.74753900  0.20434700  0.64859400  1
  K  K7  1  0.99304900  0.86889600  0.79547500  1
  Mn  Mn8  1  0.55163800  0.60822400  0.97220900  1
  Mn  Mn9  1  0.94765800  0.14266000  0.02821200  1
  Mn  Mn10  1  0.55147800  0.10827900  0.97227100  1
  Mn  Mn11  1  0.94801000  0.64273900  0.02807900  1
  Bi  Bi12  1  0.15734500  0.61129800  0.74211400  1
  Bi  Bi13  1  0.33237700  0.47537200  0.90141700  1
  Bi  Bi14  1  0.15705600  0.11133400  0.74217200  1
  Bi  Bi15  1  0.33259500  0.97542800  0.90127200  1
  Bi  Bi16  1  0.34286200  0.63886500  0.25800300  1
  Bi  Bi17  1  0.16580400  0.27535100  0.09965000  1
  Bi  Bi18  1  0.34254900  0.13881800  0.25813100  1
  Bi  Bi19  1  0.16630500  0.77541500  0.09942100  1
loop_
 _atom_site_moment_label
 _atom_site_moment_crystalaxis_x
 _atom_site_moment_crystalaxis_y
 _atom_site_moment_crystalaxis_z
  K0  -0.00148620  0.00000137  0.00268374
  K1  0.00148620  -0.00000137  -0.00268374
  K2  0.00148620  -0.00000137  -0.00268374
  K3  -0.00148620  0.00000137  0.00268374
  K4  0.00148620  -0.00000137  -0.00268374
  K5  0.00148620  -0.00000137  -0.00268374
  K6  -0.00148620  0.00000137  0.00268374
  K7  -0.00148620  0.00000137  0.00268374
  Mn8  2.84459533  -0.00262218  -5.13668192
  Mn9  2.84533844  -0.00262287  -5.13802379
  Mn10  -2.84533844  0.00262287  5.13802379
  Mn11  -2.84608154  0.00262355  5.13936566
  Bi12  -0.01114653  0.00001028  0.02012806
  Bi13  -0.00668792  0.00000617  0.01207684
  Bi14  0.01188964  -0.00001096  -0.02146993
  Bi15  0.00668792  -0.00000617  -0.01207684
  Bi16  0.01188964  -0.00001096  -0.02146993
  Bi17  -0.00668792  0.00000617  0.01207684
  Bi18  -0.01114653  0.00001028  0.02012806
  Bi19  0.00668792  -0.00000617  -0.01207684
