# generated using pymatgen
data_Rb2Mn3S4
_symmetry_space_group_name_H-M   'P 1'
_cell_length_a   5.67289006
_cell_length_b   9.29640491
_cell_length_c   9.29640017
_cell_angle_alpha   73.86676941
_cell_angle_beta   107.77048400
_cell_angle_gamma   107.77035575
_symmetry_Int_Tables_number   1
_chemical_formula_structural   Rb2Mn3S4
_chemical_formula_sum   'Rb4 Mn6 S8'
_cell_volume   435.27907227
_cell_formula_units_Z   2
loop_
 _symmetry_equiv_pos_site_id
 _symmetry_equiv_pos_as_xyz
  1  'x, y, z'
loop_
 _atom_site_type_symbol
 _atom_site_label
 _atom_site_symmetry_multiplicity
 _atom_site_fract_x
 _atom_site_fract_y
 _atom_site_fract_z
 _atom_site_occupancy
  Rb  Rb0  1  0.26400000  0.62123200  0.37877200  1
  Rb  Rb1  1  0.73602400  0.37876500  0.62127300  1
  Rb  Rb2  1  0.23600100  0.12122900  0.87876600  1
  Rb  Rb3  1  0.76397600  0.87872500  0.12123600  1
  Mn  Mn4  1  0.74999900  0.25000600  0.24999400  1
  Mn  Mn5  1  0.24999800  0.00612100  0.49387800  1
  Mn  Mn6  1  0.25000000  0.49387600  0.00612200  1
  Mn  Mn7  1  0.25000000  0.74997900  0.75002200  1
  Mn  Mn8  1  0.75000000  0.99387200  0.50612900  1
  Mn  Mn9  1  0.75000000  0.50620100  0.99380100  1
  S  S10  1  0.42330400  0.01929300  0.28515500  1
  S  S11  1  0.88115200  0.28517900  0.01933000  1
  S  S12  1  0.07669500  0.21484600  0.48070600  1
  S  S13  1  0.61884600  0.48067000  0.21482100  1
  S  S14  1  0.57678000  0.98066100  0.71491000  1
  S  S15  1  0.11883600  0.71490400  0.98065000  1
  S  S16  1  0.92321900  0.78508900  0.51933900  1
  S  S17  1  0.38117000  0.51935100  0.78509500  1
loop_
 _atom_site_moment_label
 _atom_site_moment_crystalaxis_x
 _atom_site_moment_crystalaxis_y
 _atom_site_moment_crystalaxis_z
  Mn4  -2.45520168  0.04241440  -3.92739982
  Mn5  -2.29887098  0.03971374  -3.67732946
  Mn6  -2.29824814  0.03970298  -3.67633316
  Mn7  2.45457885  -0.04240364  3.92640352
  Mn8  2.29700248  -0.03968146  3.67434057
  Mn9  2.29762531  -0.03969222  3.67533687
  S10  -0.00498265  0.00008608  -0.00797037
  S11  -0.00560548  0.00009684  -0.00896667
  S12  -0.00498265  0.00008608  -0.00797037
  S13  -0.00560548  0.00009684  -0.00896667
  S14  0.00622831  -0.00010760  0.00996296
  S15  0.00622831  -0.00010760  0.00996296
  S16  0.00622831  -0.00010760  0.00996296
  S17  0.00622831  -0.00010760  0.00996296
