# generated using pymatgen
data_LiFeS2
_symmetry_space_group_name_H-M   'P 1'
_cell_length_a   6.88268467
_cell_length_b   6.88394161
_cell_length_c   6.88444103
_cell_angle_alpha   60.00741204
_cell_angle_beta   59.99170556
_cell_angle_gamma   59.99832680
_symmetry_Int_Tables_number   1
_chemical_formula_structural   LiFeS2
_chemical_formula_sum   'Li4 Fe4 S8'
_cell_volume   230.64302853
_cell_formula_units_Z   4
loop_
 _symmetry_equiv_pos_site_id
 _symmetry_equiv_pos_as_xyz
  1  'x, y, z'
loop_
 _atom_site_type_symbol
 _atom_site_label
 _atom_site_symmetry_multiplicity
 _atom_site_fract_x
 _atom_site_fract_y
 _atom_site_fract_z
 _atom_site_occupancy
  Li  Li0  1  0.37500000  0.37500000  0.37500000  1
  Li  Li1  1  0.37500000  0.37500000  0.87500000  1
  Li  Li2  1  0.37500000  0.87500000  0.37500000  1
  Li  Li3  1  0.87500000  0.37500000  0.37500000  1
  Fe  Fe4  1  0.37500000  0.87500000  0.87500000  1
  Fe  Fe5  1  0.87500000  0.87500000  0.87500000  1
  Fe  Fe6  1  0.87500000  0.37500000  0.87500000  1
  Fe  Fe7  1  0.87500000  0.87500000  0.37500000  1
  S  S8  1  0.63825400  0.08516100  0.63827000  1
  S  S9  1  0.08519800  0.63827200  0.63824800  1
  S  S10  1  0.63825900  0.63831100  0.63827500  1
  S  S11  1  0.63824700  0.63828600  0.08517200  1
  S  S12  1  0.11174200  0.11169000  0.11172600  1
  S  S13  1  0.11175300  0.11171500  0.66482600  1
  S  S14  1  0.11174700  0.66483600  0.11173100  1
  S  S15  1  0.66479900  0.11172900  0.11175200  1
loop_
 _atom_site_moment_label
 _atom_site_moment_crystalaxis_x
 _atom_site_moment_crystalaxis_y
 _atom_site_moment_crystalaxis_z
  Fe4  -0.00003382  0.00010578  0.95596403
  Fe5  -0.00003721  0.00011640  1.05196042
  Fe6  -0.00003403  0.00010644  0.96196381
  Fe7  -0.00003322  0.00010390  0.93896467
  S8  -0.00000032  0.00000100  0.00899966
  S9  -0.00000028  0.00000089  0.00799970
  S10  -0.00000018  0.00000055  0.00499981
  S11  -0.00000032  0.00000100  0.00899966
  S12  -0.00000018  0.00000055  0.00499981
  S13  -0.00000032  0.00000100  0.00899966
  S14  -0.00000032  0.00000100  0.00899966
  S15  -0.00000028  0.00000089  0.00799970
