# generated using pymatgen
data_LiVSb
_symmetry_space_group_name_H-M   'P 1'
_cell_length_a   4.51925314
_cell_length_b   4.51925635
_cell_length_c   4.51925100
_cell_angle_alpha   59.99978807
_cell_angle_beta   59.99968247
_cell_angle_gamma   59.99975857
_symmetry_Int_Tables_number   1
_chemical_formula_structural   LiVSb
_chemical_formula_sum   'Li1 V1 Sb1'
_cell_volume   65.26533624
_cell_formula_units_Z   1
loop_
 _symmetry_equiv_pos_site_id
 _symmetry_equiv_pos_as_xyz
  1  'x, y, z'
loop_
 _atom_site_type_symbol
 _atom_site_label
 _atom_site_symmetry_multiplicity
 _atom_site_fract_x
 _atom_site_fract_y
 _atom_site_fract_z
 _atom_site_occupancy
  Li  Li0  1  0.00000000  0.00000000  0.00000000  1
  V  V1  1  0.25000000  0.25000100  0.24999900  1
  Sb  Sb2  1  0.50000000  0.49999900  0.50000000  1
loop_
 _atom_site_moment_label
 _atom_site_moment_crystalaxis_x
 _atom_site_moment_crystalaxis_y
 _atom_site_moment_crystalaxis_z
  Li0  -0.00000008  -0.00000004  0.02700006
  V1  -0.00000715  -0.00000419  2.57400567
  Sb2  0.00000040  0.00000023  -0.14300032
