# generated using pymatgen
data_LiMnAs
_symmetry_space_group_name_H-M   'P 1'
_cell_length_a   5.96456032
_cell_length_b   7.30701106
_cell_length_c   5.96458022
_cell_angle_alpha   65.91939208
_cell_angle_beta   90.00452963
_cell_angle_gamma   65.91994255
_symmetry_Int_Tables_number   1
_chemical_formula_structural   LiMnAs
_chemical_formula_sum   'Li4 Mn4 As4'
_cell_volume   212.30820811
_cell_formula_units_Z   4
loop_
 _symmetry_equiv_pos_site_id
 _symmetry_equiv_pos_as_xyz
  1  'x, y, z'
loop_
 _atom_site_type_symbol
 _atom_site_label
 _atom_site_symmetry_multiplicity
 _atom_site_fract_x
 _atom_site_fract_y
 _atom_site_fract_z
 _atom_site_occupancy
  Li  Li0  1  0.00000300  0.99999200  0.50000500  1
  Li  Li1  1  0.74999900  0.50000400  0.74999900  1
  Li  Li2  1  0.49999800  0.00000300  0.00000000  1
  Li  Li3  1  0.25000300  0.49999200  0.25000400  1
  Mn  Mn4  1  0.50000600  0.99999400  0.50000400  1
  Mn  Mn5  1  0.25000200  0.49999600  0.75000500  1
  Mn  Mn6  1  0.75000200  0.49999500  0.25000600  1
  Mn  Mn7  1  0.00000600  0.99999500  0.00000000  1
  As  As8  1  0.37499600  0.75000700  0.37499100  1
  As  As9  1  0.12499200  0.25000700  0.62499500  1
  As  As10  1  0.87499400  0.75000700  0.87499800  1
  As  As11  1  0.62499900  0.25000800  0.12499400  1
loop_
 _atom_site_moment_label
 _atom_site_moment_crystalaxis_x
 _atom_site_moment_crystalaxis_y
 _atom_site_moment_crystalaxis_z
  Mn4  1.37828633  -3.37765610  -1.38001111
  Mn5  1.37793301  -3.37679025  -1.37965735
  Mn6  -1.37793301  3.37679025  1.37965735
  Mn7  -1.37828633  3.37765610  1.38001111
