# generated using pymatgen
data_K(VS2)2
_symmetry_space_group_name_H-M   'P 1'
_cell_length_a   6.66824915
_cell_length_b   6.66911563
_cell_length_c   7.97759175
_cell_angle_alpha   100.03357009
_cell_angle_beta   99.89896418
_cell_angle_gamma   61.48256553
_symmetry_Int_Tables_number   1
_chemical_formula_structural   K(VS2)2
_chemical_formula_sum   'K2 V4 S8'
_cell_volume   305.34392908
_cell_formula_units_Z   2
loop_
 _symmetry_equiv_pos_site_id
 _symmetry_equiv_pos_as_xyz
  1  'x, y, z'
loop_
 _atom_site_type_symbol
 _atom_site_label
 _atom_site_symmetry_multiplicity
 _atom_site_fract_x
 _atom_site_fract_y
 _atom_site_fract_z
 _atom_site_occupancy
  K  K0  1  0.39464200  0.89307100  0.49616100  1
  K  K1  1  0.95168700  0.45121100  0.49310700  1
  V  V2  1  0.99862800  0.49792900  0.99986600  1
  V  V3  1  0.51533000  0.47030100  0.99891700  1
  V  V4  1  0.96959100  0.01578800  0.99899300  1
  V  V5  1  0.51273300  0.01366100  0.99909800  1
  S  S6  1  0.30872300  0.30288400  0.81306200  1
  S  S7  1  0.80360000  0.80768200  0.81342300  1
  S  S8  1  0.30825000  0.80780600  0.84178900  1
  S  S9  1  0.80585400  0.30489800  0.81207900  1
  S  S10  1  0.19289600  0.18711800  0.17204100  1
  S  S11  1  0.68675800  0.69362800  0.17193600  1
  S  S12  1  0.69310800  0.19483000  0.19852100  1
  S  S13  1  0.18820300  0.68919800  0.17100500  1
loop_
 _atom_site_moment_label
 _atom_site_moment_crystalaxis_x
 _atom_site_moment_crystalaxis_y
 _atom_site_moment_crystalaxis_z
  K1  -0.00001065  -0.00000615  0.00199705
  V2  0.00602929  0.00347814  -1.13032846
  V3  -0.00598135  -0.00345049  1.12134175
  V4  -0.00598135  -0.00345049  1.12134175
  V5  -0.00629027  -0.00362869  1.17925611
  S6  0.00021305  0.00012290  -0.03994094
  S7  0.00021838  0.00012597  -0.04093946
  S8  0.00017577  0.00010139  -0.03295127
  S9  0.00019174  0.00011061  -0.03594684
  S10  0.00016511  0.00009525  -0.03095422
  S11  0.00015979  0.00009218  -0.02995570
  S12  0.00023435  0.00013519  -0.04393503
  S13  0.00012783  0.00007374  -0.02396456
