# generated using pymatgen
data_Mg2MnGa3
_symmetry_space_group_name_H-M   'P 1'
_cell_length_a   5.50227190
_cell_length_b   8.55088203
_cell_length_c   8.64926900
_cell_angle_alpha   90.00015203
_cell_angle_beta   90.00000194
_cell_angle_gamma   90.00082200
_symmetry_Int_Tables_number   1
_chemical_formula_structural   Mg2MnGa3
_chemical_formula_sum   'Mg8 Mn4 Ga12'
_cell_volume   406.94186054
_cell_formula_units_Z   4
loop_
 _symmetry_equiv_pos_site_id
 _symmetry_equiv_pos_as_xyz
  1  'x, y, z'
loop_
 _atom_site_type_symbol
 _atom_site_label
 _atom_site_symmetry_multiplicity
 _atom_site_fract_x
 _atom_site_fract_y
 _atom_site_fract_z
 _atom_site_occupancy
  Mg  Mg0  1  0.50000200  0.82773600  0.93393800  1
  Mg  Mg1  1  0.99999600  0.32776800  0.93402000  1
  Mg  Mg2  1  0.49999600  0.17225000  0.06595800  1
  Mg  Mg3  1  0.00000300  0.67227700  0.06583400  1
  Mg  Mg4  1  0.49999900  0.17224800  0.43404000  1
  Mg  Mg5  1  0.00000400  0.67227500  0.43416800  1
  Mg  Mg6  1  0.50000100  0.82773800  0.56606500  1
  Mg  Mg7  1  0.99999800  0.32777100  0.56597900  1
  Mn  Mn8  1  0.00000100  0.15910800  0.25000100  1
  Mn  Mn9  1  0.00000200  0.84096100  0.74999700  1
  Mn  Mn10  1  0.49999900  0.65917600  0.25000200  1
  Mn  Mn11  1  0.50000100  0.34082500  0.75000000  1
  Ga  Ga12  1  0.99999900  0.99998800  0.50002400  1
  Ga  Ga13  1  0.50000100  0.49988800  0.50010000  1
  Ga  Ga14  1  0.00000200  0.99999000  0.99997600  1
  Ga  Ga15  1  0.50000000  0.49988800  0.99990000  1
  Ga  Ga16  1  0.26329700  0.91039300  0.25000100  1
  Ga  Ga17  1  0.76330300  0.41013000  0.25000000  1
  Ga  Ga18  1  0.73667800  0.08979800  0.74999900  1
  Ga  Ga19  1  0.23664400  0.58973400  0.75000000  1
  Ga  Ga20  1  0.73670300  0.91039300  0.24999900  1
  Ga  Ga21  1  0.23669800  0.41013000  0.25000000  1
  Ga  Ga22  1  0.26332000  0.08979800  0.74999900  1
  Ga  Ga23  1  0.76335200  0.58973600  0.75000000  1
loop_
 _atom_site_moment_label
 _atom_site_moment_crystalaxis_x
 _atom_site_moment_crystalaxis_y
 _atom_site_moment_crystalaxis_z
  Mg0  0.00000000  0.00000001  0.00800000
  Mg1  0.00000000  -0.00000001  -0.00800000
  Mg2  0.00000000  0.00000001  0.00800000
  Mg3  0.00000000  -0.00000001  -0.00800000
  Mg4  0.00000000  0.00000001  0.00800000
  Mg5  0.00000000  -0.00000001  -0.00800000
  Mg6  0.00000000  0.00000001  0.00800000
  Mg7  0.00000000  -0.00000001  -0.00800000
  Mn8  -0.00000008  -0.00000293  -2.34500000
  Mn9  -0.00000008  -0.00000297  -2.37200000
  Mn10  0.00000008  0.00000295  2.36000000
  Mn11  0.00000008  0.00000294  2.35400000
  Ga12  0.00000000  0.00000008  0.06700000
  Ga13  0.00000000  -0.00000009  -0.06800000
  Ga14  0.00000000  0.00000009  0.06800000
  Ga15  0.00000000  -0.00000009  -0.06800000
  Ga16  0.00000000  -0.00000002  -0.01300000
  Ga17  0.00000000  0.00000002  0.01300000
  Ga18  0.00000000  -0.00000002  -0.01300000
  Ga19  0.00000000  0.00000002  0.01300000
  Ga20  0.00000000  -0.00000002  -0.01300000
  Ga21  0.00000000  0.00000002  0.01300000
  Ga22  0.00000000  -0.00000002  -0.01300000
  Ga23  0.00000000  0.00000002  0.01300000
