# generated using pymatgen
data_Mg2MnGe2
_symmetry_space_group_name_H-M   'P 1'
_cell_length_a   13.33145150
_cell_length_b   13.35317624
_cell_length_c   60.09449305
_cell_angle_alpha   83.65328550
_cell_angle_beta   83.70543379
_cell_angle_gamma   90.07969629
_symmetry_Int_Tables_number   1
_chemical_formula_structural   Mg2MnGe2
_chemical_formula_sum   'Mg8 Mn4 Ge8'
_cell_volume   10567.20245546
_cell_formula_units_Z   4
loop_
 _symmetry_equiv_pos_site_id
 _symmetry_equiv_pos_as_xyz
  1  'x, y, z'
loop_
 _atom_site_type_symbol
 _atom_site_label
 _atom_site_symmetry_multiplicity
 _atom_site_fract_x
 _atom_site_fract_y
 _atom_site_fract_z
 _atom_site_occupancy
  Mg  Mg0  1  0.58406600  0.08407700  0.83172700  1
  Mg  Mg1  1  0.33411800  0.83419400  0.33169700  1
  Mg  Mg2  1  0.08416300  0.58413900  0.83173800  1
  Mg  Mg3  1  0.83415600  0.33409700  0.33169400  1
  Mg  Mg4  1  0.66581400  0.16582300  0.66829900  1
  Mg  Mg5  1  0.41590400  0.91590500  0.16829400  1
  Mg  Mg6  1  0.16591000  0.66586800  0.66830700  1
  Mg  Mg7  1  0.91587900  0.41586200  0.16828200  1
  Mn  Mn8  1  0.49999100  0.99999600  0.00000200  1
  Mn  Mn9  1  0.24999100  0.74999700  0.50000200  1
  Mn  Mn10  1  0.74999000  0.24999700  0.50000200  1
  Mn  Mn11  1  0.99999100  0.49999600  0.00000300  1
  Ge  Ge12  1  0.68769400  0.18766700  0.62473600  1
  Ge  Ge13  1  0.43762400  0.93753500  0.12473000  1
  Ge  Ge14  1  0.18757500  0.68763900  0.62471200  1
  Ge  Ge15  1  0.93769200  0.43768300  0.12477300  1
  Ge  Ge16  1  0.56242800  0.06238800  0.87521900  1
  Ge  Ge17  1  0.31232300  0.81234400  0.37528200  1
  Ge  Ge18  1  0.06235600  0.56241900  0.87520300  1
  Ge  Ge19  1  0.81233600  0.31237800  0.37529800  1
loop_
 _atom_site_moment_label
 _atom_site_moment_crystalaxis_x
 _atom_site_moment_crystalaxis_y
 _atom_site_moment_crystalaxis_z
  Mg0  0.00067026  0.00067360  -0.00607418
  Mg1  0.00067026  0.00067360  -0.00607418
  Mg2  0.00067026  0.00067360  -0.00607418
  Mg3  0.00067026  0.00067360  -0.00607418
  Mg4  0.00067026  0.00067360  -0.00607418
  Mg5  0.00067026  0.00067360  -0.00607418
  Mg6  0.00067026  0.00067360  -0.00607418
  Mg7  0.00067026  0.00067360  -0.00607418
  Mn8  -0.52470346  -0.52731821  4.75506797
  Mn9  -0.52470346  -0.52731821  4.75506797
  Mn10  0.52526202  0.52787954  -4.76012978
  Mn11  0.52515031  0.52776728  -4.75911742
  Ge12  -0.07909092  -0.07948505  0.71675285
  Ge13  -0.07931434  -0.07970959  0.71877757
  Ge14  -0.07909092  -0.07948505  0.71675285
  Ge15  -0.07931434  -0.07970959  0.71877757
  Ge16  -0.07920263  -0.07959732  0.71776521
  Ge17  -0.07931434  -0.07970959  0.71877757
  Ge18  -0.07920263  -0.07959732  0.71776521
  Ge19  -0.07942605  -0.07982185  0.71978994
