# generated using pymatgen
data_CsFe4As3
_symmetry_space_group_name_H-M   'P 1'
_cell_length_a   3.94727200
_cell_length_b   3.92510800
_cell_length_c   10.37645700
_cell_angle_alpha   90.00017041
_cell_angle_beta   90.00008772
_cell_angle_gamma   90.00292585
_symmetry_Int_Tables_number   1
_chemical_formula_structural   CsFe4As3
_chemical_formula_sum   'Cs1 Fe4 As3'
_cell_volume   160.76731377
_cell_formula_units_Z   1
loop_
 _symmetry_equiv_pos_site_id
 _symmetry_equiv_pos_as_xyz
  1  'x, y, z'
loop_
 _atom_site_type_symbol
 _atom_site_label
 _atom_site_symmetry_multiplicity
 _atom_site_fract_x
 _atom_site_fract_y
 _atom_site_fract_z
 _atom_site_occupancy
  Cs  Cs0  1  0.00000000  0.00000000  0.49999900  1
  Fe  Fe1  1  0.00000000  0.50000000  0.86755500  1
  Fe  Fe2  1  0.00000000  0.50000000  0.13244900  1
  Fe  Fe3  1  0.50000000  0.99999900  0.86905700  1
  Fe  Fe4  1  0.50000000  0.00000000  0.13094400  1
  As  As5  1  0.00000000  0.00000000  0.00000200  1
  As  As6  1  0.50000000  0.50000000  0.73845100  1
  As  As7  1  0.50000000  0.50000000  0.26154400  1
loop_
 _atom_site_moment_label
 _atom_site_moment_crystalaxis_x
 _atom_site_moment_crystalaxis_y
 _atom_site_moment_crystalaxis_z
  Cs0  0.00000000  0.00000000  0.00100000
  Fe1  -0.00000158  -0.00000295  -2.04300000
  Fe2  -0.00000158  -0.00000295  -2.04400000
  Fe3  0.00000170  0.00000318  2.20200000
  Fe4  0.00000170  0.00000319  2.20600000
  As5  0.00000000  0.00000000  0.00200000
  As6  0.00000000  0.00000000  0.00200000
  As7  0.00000000  0.00000000  0.00200000
