# generated using pymatgen
data_KV5S8
_symmetry_space_group_name_H-M   'P 1'
_cell_length_a   3.28851039
_cell_length_b   17.10003114
_cell_length_c   8.95487686
_cell_angle_alpha   104.27083077
_cell_angle_beta   79.43704662
_cell_angle_gamma   90.00318035
_symmetry_Int_Tables_number   1
_chemical_formula_structural   KV5S8
_chemical_formula_sum   'K2 V10 S16'
_cell_volume   479.21721527
_cell_formula_units_Z   2
loop_
 _symmetry_equiv_pos_site_id
 _symmetry_equiv_pos_as_xyz
  1  'x, y, z'
loop_
 _atom_site_type_symbol
 _atom_site_label
 _atom_site_symmetry_multiplicity
 _atom_site_fract_x
 _atom_site_fract_y
 _atom_site_fract_z
 _atom_site_occupancy
  K  K0  1  0.50072700  0.24996200  0.99866300  1
  K  K1  1  0.50069900  0.75001900  0.99871300  1
  V  V2  1  0.64744400  0.50300500  0.70469200  1
  V  V3  1  0.35219100  0.49687400  0.29608500  1
  V  V4  1  0.35213700  0.99704500  0.29611500  1
  V  V5  1  0.71000900  0.82268600  0.58037800  1
  V  V6  1  0.29054100  0.67745700  0.41851600  1
  V  V7  1  0.99967200  0.99986400  0.00063200  1
  V  V8  1  0.99972100  0.49970000  0.00058900  1
  V  V9  1  0.64731300  0.00312200  0.70490800  1
  V  V10  1  0.71002600  0.32261900  0.58036400  1
  V  V11  1  0.29047300  0.17758800  0.41861400  1
  S  S12  1  0.42587000  0.08837200  0.14830100  1
  S  S13  1  0.42593900  0.58821300  0.14826800  1
  S  S14  1  0.57399700  0.41135400  0.85194300  1
  S  S15  1  0.57388900  0.91150700  0.85211600  1
  S  S16  1  0.91472400  0.40869400  0.17043900  1
  S  S17  1  0.91464700  0.90884500  0.17050300  1
  S  S18  1  0.08457400  0.09111900  0.83094300  1
  S  S19  1  0.08465600  0.59100200  0.83082000  1
  S  S20  1  0.83890400  0.25011300  0.32184800  1
  S  S21  1  0.83892800  0.75008900  0.32183800  1
  S  S22  1  0.16169400  0.25005600  0.67696000  1
  S  S23  1  0.16169200  0.75009800  0.67695800  1
  S  S24  1  0.75979200  0.07908500  0.48048800  1
  S  S25  1  0.75990600  0.57895700  0.48036800  1
  S  S26  1  0.23996200  0.42119000  0.51989200  1
  S  S27  1  0.23987500  0.92136400  0.52004400  1
loop_
 _atom_site_moment_label
 _atom_site_moment_crystalaxis_x
 _atom_site_moment_crystalaxis_y
 _atom_site_moment_crystalaxis_z
  V2  0.35944646  0.00053436  -0.97124732
  V3  0.35833706  0.00053271  -0.96824964
  V4  -0.35426925  -0.00052666  0.95725816
  V5  -0.36573308  -0.00054370  0.98823415
  V6  0.36610288  0.00054425  -0.98923338
  V7  0.26477744  0.00039362  -0.71544556
  V8  -0.26884525  -0.00039967  0.72643704
  V9  -0.35907666  -0.00053381  0.97024809
  V10  0.36795189  0.00054700  -0.99422951
  V11  -0.36906129  -0.00054865  0.99722719
  S12  0.00813562  0.00001209  -0.02198296
  S13  -0.00813562  -0.00001209  0.02198296
  S14  -0.00813562  -0.00001209  0.02198296
  S15  0.00813562  0.00001209  -0.02198296
  S16  -0.01590144  -0.00002364  0.04296670
  S17  0.01553164  0.00002309  -0.04196748
  S18  0.01590144  0.00002364  -0.04296670
  S19  -0.01590144  -0.00002364  0.04296670
  S20  0.00554701  0.00000825  -0.01498838
  S21  -0.00517721  -0.00000770  0.01398916
  S22  -0.00554701  -0.00000825  0.01498838
  S23  0.00554701  0.00000825  -0.01498838
  S24  0.01405243  0.00002089  -0.03797057
  S25  -0.01405243  -0.00002089  0.03797057
  S26  -0.01405243  -0.00002089  0.03797057
  S27  0.01405243  0.00002089  -0.03797057
