# generated using pymatgen
data_Be4AlCr
_symmetry_space_group_name_H-M   'P 1'
_cell_length_a   4.36369326
_cell_length_b   4.36369382
_cell_length_c   4.36369300
_cell_angle_alpha   59.99999867
_cell_angle_beta   59.99999436
_cell_angle_gamma   59.99999617
_symmetry_Int_Tables_number   1
_chemical_formula_structural   Be4AlCr
_chemical_formula_sum   'Be4 Al1 Cr1'
_cell_volume   58.75538025
_cell_formula_units_Z   1
loop_
 _symmetry_equiv_pos_site_id
 _symmetry_equiv_pos_as_xyz
  1  'x, y, z'
loop_
 _atom_site_type_symbol
 _atom_site_label
 _atom_site_symmetry_multiplicity
 _atom_site_fract_x
 _atom_site_fract_y
 _atom_site_fract_z
 _atom_site_occupancy
  Be  Be0  1  0.62660300  0.62660300  0.62660300  1
  Be  Be1  1  0.62660300  0.62660300  0.12019000  1
  Be  Be2  1  0.12019000  0.62660300  0.62660300  1
  Be  Be3  1  0.62660300  0.12019000  0.62660300  1
  Al  Al4  1  0.25000000  0.25000000  0.25000000  1
  Cr  Cr5  1  0.00000000  0.00000000  0.00000000  1
loop_
 _atom_site_moment_label
 _atom_site_moment_crystalaxis_x
 _atom_site_moment_crystalaxis_y
 _atom_site_moment_crystalaxis_z
  Be0  0.00000000  0.00000000  -0.00100000
  Be1  0.00000000  0.00000000  -0.00100000
  Be2  0.00000000  0.00000000  -0.00100000
  Be3  0.00000000  0.00000000  -0.00100000
  Al4  0.00000000  0.00000000  0.00500000
  Cr5  0.00000000  0.00000000  2.61400000
