# generated using pymatgen
data_Na2MnP2
_symmetry_space_group_name_H-M   'P 1'
_cell_length_a   3.47795480
_cell_length_b   11.15777259
_cell_length_c   11.16601686
_cell_angle_alpha   112.74052754
_cell_angle_beta   90.29436557
_cell_angle_gamma   89.91485791
_symmetry_Int_Tables_number   1
_chemical_formula_structural   Na2MnP2
_chemical_formula_sum   'Na8 Mn4 P8'
_cell_volume   399.62219411
_cell_formula_units_Z   4
loop_
 _symmetry_equiv_pos_site_id
 _symmetry_equiv_pos_as_xyz
  1  'x, y, z'
loop_
 _atom_site_type_symbol
 _atom_site_label
 _atom_site_symmetry_multiplicity
 _atom_site_fract_x
 _atom_site_fract_y
 _atom_site_fract_z
 _atom_site_occupancy
  Na  Na0  1  0.49131000  0.66301000  0.72221300  1
  Na  Na1  1  0.50482000  0.64818900  0.22140800  1
  Na  Na2  1  0.00097300  0.64061800  0.96850800  1
  Na  Na3  1  0.98802100  0.69596200  0.49216500  1
  Na  Na4  1  0.51217500  0.30379400  0.75744000  1
  Na  Na5  1  0.49875700  0.35914600  0.28128600  1
  Na  Na6  1  0.99548700  0.35156500  0.02831400  1
  Na  Na7  1  0.00856500  0.33789200  0.52782900  1
  Mn  Mn8  1  0.51086100  0.99523400  0.45802500  1
  Mn  Mn9  1  0.98919800  0.00445400  0.79207800  1
  Mn  Mn10  1  0.49497600  0.00091900  0.00379300  1
  Mn  Mn11  1  0.00489800  0.99944800  0.24641900  1
  P  P12  1  0.49112400  0.13989100  0.89936300  1
  P  P13  1  0.50675000  0.14085500  0.36472700  1
  P  P14  1  0.99651200  0.13812500  0.13346600  1
  P  P15  1  0.01041600  0.07965900  0.61682000  1
  P  P16  1  0.48966400  0.91995600  0.63316200  1
  P  P17  1  0.50334000  0.86210600  0.11681100  1
  P  P18  1  0.99318200  0.85918600  0.88583200  1
  P  P19  1  0.00897100  0.85999100  0.35034400  1
loop_
 _atom_site_moment_label
 _atom_site_moment_crystalaxis_x
 _atom_site_moment_crystalaxis_y
 _atom_site_moment_crystalaxis_z
  Na1  -0.00000205  0.00203187  0.00008656
  Na3  -0.00000205  0.00203187  0.00008656
  Na4  -0.00000205  0.00203187  0.00008656
  Na6  -0.00000205  0.00203187  0.00008656
  Mn8  0.00182314  -1.80531536  -0.07690989
  Mn9  0.00182417  -1.80633130  -0.07695317
  Mn10  -0.00226226  2.24013527  0.09543405
  Mn11  -0.00226123  2.23911934  0.09539077
  P12  -0.00002257  0.02235056  0.00095218
  P13  -0.00000205  0.00203187  0.00008656
  P14  0.00004925  -0.04876485  -0.00207748
  P15  -0.00003591  0.03555770  0.00151483
  P16  -0.00003591  0.03555770  0.00151483
  P17  0.00005027  -0.04978078  -0.00212076
  P18  -0.00000205  0.00203187  0.00008656
  P19  -0.00002360  0.02336649  0.00099546
