# generated using pymatgen
data_Sr(FeS2)2
_symmetry_space_group_name_H-M   'P 1'
_cell_length_a   5.40387458
_cell_length_b   6.01821269
_cell_length_c   6.01821916
_cell_angle_alpha   78.46208409
_cell_angle_beta   116.68768048
_cell_angle_gamma   116.68756076
_symmetry_Int_Tables_number   1
_chemical_formula_structural   Sr(FeS2)2
_chemical_formula_sum   'Sr1 Fe2 S4'
_cell_volume   156.24216553
_cell_formula_units_Z   1
loop_
 _symmetry_equiv_pos_site_id
 _symmetry_equiv_pos_as_xyz
  1  'x, y, z'
loop_
 _atom_site_type_symbol
 _atom_site_label
 _atom_site_symmetry_multiplicity
 _atom_site_fract_x
 _atom_site_fract_y
 _atom_site_fract_z
 _atom_site_occupancy
  Sr  Sr0  1  0.00000000  0.00000900  0.99999100  1
  Fe  Fe1  1  0.49999900  0.50001800  0.49998100  1
  Fe  Fe2  1  0.00000100  0.49998000  0.50002000  1
  S  S3  1  0.58741300  0.49997200  0.17497700  1
  S  S4  1  0.41258800  0.82502300  0.50002900  1
  S  S5  1  0.08747500  0.17498100  0.49998300  1
  S  S6  1  0.91252500  0.50001700  0.82501900  1
loop_
 _atom_site_moment_label
 _atom_site_moment_crystalaxis_x
 _atom_site_moment_crystalaxis_y
 _atom_site_moment_crystalaxis_z
  Fe1  -2.49533354  -0.00309518  -2.79075873
  Fe2  2.49533354  0.00309518  2.79075873
