# generated using pymatgen
data_CoTe2
_symmetry_space_group_name_H-M   'P 1'
_cell_length_a   6.30233701
_cell_length_b   6.30255501
_cell_length_c   6.30247501
_cell_angle_alpha   90.00416373
_cell_angle_beta   90.00396380
_cell_angle_gamma   89.99550895
_symmetry_Int_Tables_number   1
_chemical_formula_structural   CoTe2
_chemical_formula_sum   'Co4 Te8'
_cell_volume   250.33950913
_cell_formula_units_Z   4
loop_
 _symmetry_equiv_pos_site_id
 _symmetry_equiv_pos_as_xyz
  1  'x, y, z'
loop_
 _atom_site_type_symbol
 _atom_site_label
 _atom_site_symmetry_multiplicity
 _atom_site_fract_x
 _atom_site_fract_y
 _atom_site_fract_z
 _atom_site_occupancy
  Co  Co0  1  0.50000000  0.50000000  0.00000000  1
  Co  Co1  1  0.50000000  0.00000000  0.49999900  1
  Co  Co2  1  0.00000100  0.50000000  0.50000100  1
  Co  Co3  1  0.00000100  0.00000100  0.00000000  1
  Te  Te4  1  0.13441500  0.86558200  0.36554700  1
  Te  Te5  1  0.86554400  0.36553600  0.13445500  1
  Te  Te6  1  0.36557000  0.13444600  0.86558300  1
  Te  Te7  1  0.63446200  0.63443100  0.63443400  1
  Te  Te8  1  0.86558500  0.13441800  0.63445300  1
  Te  Te9  1  0.13445500  0.63446400  0.86554500  1
  Te  Te10  1  0.63443000  0.86555400  0.13441700  1
  Te  Te11  1  0.36553800  0.36556800  0.36556600  1
loop_
 _atom_site_moment_label
 _atom_site_moment_crystalaxis_x
 _atom_site_moment_crystalaxis_y
 _atom_site_moment_crystalaxis_z
  Co0  0.00002279  0.00002394  0.65900000
  Co1  0.00002601  0.00002732  0.75200000
  Co2  0.00002345  0.00002463  0.67800000
  Co3  0.00002203  0.00002314  0.63700000
  Te4  0.00000066  0.00000069  0.01900000
  Te5  0.00000062  0.00000065  0.01800000
  Te6  0.00000066  0.00000069  0.01900000
  Te7  0.00000066  0.00000069  0.01900000
  Te8  0.00000066  0.00000069  0.01900000
  Te9  0.00000062  0.00000065  0.01800000
  Te10  0.00000066  0.00000069  0.01900000
  Te11  0.00000066  0.00000069  0.01900000
