# generated using pymatgen
data_SrMnSb2
_symmetry_space_group_name_H-M   'P 1'
_cell_length_a   4.41444204
_cell_length_b   4.41444904
_cell_length_c   11.47443200
_cell_angle_alpha   90.00017577
_cell_angle_beta   89.99948575
_cell_angle_gamma   90.01448474
_symmetry_Int_Tables_number   1
_chemical_formula_structural   SrMnSb2
_chemical_formula_sum   'Sr2 Mn2 Sb4'
_cell_volume   223.60602873
_cell_formula_units_Z   2
loop_
 _symmetry_equiv_pos_site_id
 _symmetry_equiv_pos_as_xyz
  1  'x, y, z'
loop_
 _atom_site_type_symbol
 _atom_site_label
 _atom_site_symmetry_multiplicity
 _atom_site_fract_x
 _atom_site_fract_y
 _atom_site_fract_z
 _atom_site_occupancy
  Sr  Sr0  1  0.00000200  0.50000100  0.23124700  1
  Sr  Sr1  1  0.49999900  0.99999900  0.76875300  1
  Mn  Mn2  1  0.50000200  0.50000100  0.50000000  1
  Mn  Mn3  1  0.99999800  0.00000000  0.50000100  1
  Sb  Sb4  1  0.99997500  0.00000000  0.00000200  1
  Sb  Sb5  1  0.50002500  0.50000000  0.99999800  1
  Sb  Sb6  1  0.99999700  0.50000000  0.63960600  1
  Sb  Sb7  1  0.50000200  0.00000000  0.36039400  1
loop_
 _atom_site_moment_label
 _atom_site_moment_crystalaxis_x
 _atom_site_moment_crystalaxis_y
 _atom_site_moment_crystalaxis_z
  Mn2  0.00001646  -0.00000548  -3.70300000
  Mn3  -0.00001646  0.00000548  3.70300000
  Sb4  0.00000001  0.00000000  -0.00300000
  Sb5  -0.00000001  0.00000000  0.00300000
