# generated using pymatgen
data_MnTe
_symmetry_space_group_name_H-M   'P 1'
_cell_length_a   4.10734781
_cell_length_b   4.10735154
_cell_length_c   6.43883100
_cell_angle_alpha   90.00051738
_cell_angle_beta   89.99989266
_cell_angle_gamma   120.00746851
_symmetry_Int_Tables_number   1
_chemical_formula_structural   MnTe
_chemical_formula_sum   'Mn2 Te2'
_cell_volume   94.06505721
_cell_formula_units_Z   2
loop_
 _symmetry_equiv_pos_site_id
 _symmetry_equiv_pos_as_xyz
  1  'x, y, z'
loop_
 _atom_site_type_symbol
 _atom_site_label
 _atom_site_symmetry_multiplicity
 _atom_site_fract_x
 _atom_site_fract_y
 _atom_site_fract_z
 _atom_site_occupancy
  Mn  Mn0  1  0.00000000  0.49999900  0.50000000  1
  Mn  Mn1  1  0.00000100  0.50000200  0.00000000  1
  Te  Te2  1  0.66653500  0.83346400  0.25000200  1
  Te  Te3  1  0.33346400  0.16653500  0.74999800  1
loop_
 _atom_site_moment_label
 _atom_site_moment_crystalaxis_x
 _atom_site_moment_crystalaxis_y
 _atom_site_moment_crystalaxis_z
  Mn0  -2.30816073  2.30815833  0.00001461
  Mn1  2.30758340  -2.30758100  -0.00001461
  Te2  0.00057733  -0.00057733  0.00000000
  Te3  0.00057733  -0.00057733  0.00000000
