# generated using pymatgen
data_RbCr5S8
_symmetry_space_group_name_H-M   'P 1'
_cell_length_a   3.48506515
_cell_length_b   10.79912282
_cell_length_c   14.04162546
_cell_angle_alpha   86.51060792
_cell_angle_beta   97.13792538
_cell_angle_gamma   99.29427180
_symmetry_Int_Tables_number   1
_chemical_formula_structural   RbCr5S8
_chemical_formula_sum   'Rb2 Cr10 S16'
_cell_volume   517.03671727
_cell_formula_units_Z   2
loop_
 _symmetry_equiv_pos_site_id
 _symmetry_equiv_pos_as_xyz
  1  'x, y, z'
loop_
 _atom_site_type_symbol
 _atom_site_label
 _atom_site_symmetry_multiplicity
 _atom_site_fract_x
 _atom_site_fract_y
 _atom_site_fract_z
 _atom_site_occupancy
  Rb  Rb0  1  0.50169200  0.25263600  0.75061400  1
  Rb  Rb1  1  0.50168900  0.75263500  0.25060700  1
  Cr  Cr2  1  0.70553900  0.87246400  0.53896100  1
  Cr  Cr3  1  0.29312500  0.62426700  0.96168000  1
  Cr  Cr4  1  0.66052900  0.15487100  0.16645900  1
  Cr  Cr5  1  0.34426100  0.35072300  0.33732700  1
  Cr  Cr6  1  0.99540900  0.99566000  0.99523500  1
  Cr  Cr7  1  0.70554700  0.37246800  0.03896800  1
  Cr  Cr8  1  0.29316600  0.12427300  0.46166700  1
  Cr  Cr9  1  0.66051500  0.65487200  0.66645800  1
  Cr  Cr10  1  0.34426200  0.85072400  0.83731900  1
  Cr  Cr11  1  0.99540300  0.49565900  0.49523100  1
  S  S12  1  0.76031800  0.68137500  0.83917500  1
  S  S13  1  0.76032500  0.18137600  0.33917600  1
  S  S14  1  0.24282300  0.32227200  0.16301000  1
  S  S15  1  0.24281800  0.82227100  0.66300700  1
  S  S16  1  0.82968200  0.58604500  0.07286800  1
  S  S17  1  0.82969300  0.08605100  0.57285700  1
  S  S18  1  0.16875800  0.41051100  0.92760000  1
  S  S19  1  0.16875200  0.91051200  0.42759000  1
  S  S20  1  0.91129700  0.49760500  0.32537700  1
  S  S21  1  0.91130000  0.99760400  0.82537700  1
  S  S22  1  0.08796100  0.50723300  0.66829900  1
  S  S23  1  0.08797200  0.00723300  0.16830300  1
  S  S24  1  0.57371400  0.15014800  0.99740500  1
  S  S25  1  0.57370900  0.65014900  0.49739700  1
  S  S26  1  0.42486800  0.84418300  0.00601400  1
  S  S27  1  0.42487300  0.34418200  0.50601900  1
loop_
 _atom_site_moment_label
 _atom_site_moment_crystalaxis_x
 _atom_site_moment_crystalaxis_y
 _atom_site_moment_crystalaxis_z
  Rb0  -0.00000063  0.00059271  0.00077000
  Cr2  0.00165006  -1.56475565  -2.03279966
  Cr3  0.00167257  -1.58609323  -2.06051965
  Cr4  0.00172319  -1.63410278  -2.12288964
  Cr5  0.00164506  -1.56001397  -2.02663966
  Cr6  0.00170382  -1.61572875  -2.09901964
  Cr7  -0.00165694  1.57127547  2.04126965
  Cr8  -0.00167319  1.58668594  2.06128965
  Cr9  -0.00172007  1.63113923  2.11903964
  Cr10  -0.00164694  1.56179210  2.02894966
  Cr11  -0.00170319  1.61513604  2.09824964
  S12  0.00001688  -0.01600318  -0.02079000
  S13  -0.00001688  0.01600318  0.02079000
  S14  -0.00001625  0.01541047  0.02002000
  S15  0.00001688  -0.01600318  -0.02079000
  S16  -0.00002063  0.01955945  0.02541000
  S17  0.00002125  -0.02015216  -0.02618000
  S18  0.00002375  -0.02252300  -0.02926000
  S19  -0.00002250  0.02133758  0.02772000
  S20  -0.00002125  0.02015216  0.02618000
  S21  0.00002125  -0.02015216  -0.02618000
  S22  0.00005500  -0.05215852  -0.06775999
  S23  -0.00005563  0.05275123  0.06852999
  S24  -0.00003250  0.03082094  0.04003999
  S25  0.00003250  -0.03082094  -0.04003999
  S26  -0.00001625  0.01541047  0.02002000
  S27  0.00001563  -0.01481776  -0.01925000
