# generated using pymatgen
data_LiFeAs
_symmetry_space_group_name_H-M   'P 1'
_cell_length_a   4.10428501
_cell_length_b   11.09346233
_cell_length_c   7.05197998
_cell_angle_alpha   72.63085884
_cell_angle_beta   90.00812261
_cell_angle_gamma   79.34638239
_symmetry_Int_Tables_number   1
_chemical_formula_structural   LiFeAs
_chemical_formula_sum   'Li8 Fe8 As8'
_cell_volume   300.63421955
_cell_formula_units_Z   8
loop_
 _symmetry_equiv_pos_site_id
 _symmetry_equiv_pos_as_xyz
  1  'x, y, z'
loop_
 _atom_site_type_symbol
 _atom_site_label
 _atom_site_symmetry_multiplicity
 _atom_site_fract_x
 _atom_site_fract_y
 _atom_site_fract_z
 _atom_site_occupancy
  Li  Li0  1  0.18509800  0.62937400  0.85374900  1
  Li  Li1  1  0.68529300  0.62950800  0.35524000  1
  Li  Li2  1  0.81494700  0.37050800  0.14622800  1
  Li  Li3  1  0.31476600  0.37045500  0.64474700  1
  Li  Li4  1  0.37434300  0.25248500  0.35891900  1
  Li  Li5  1  0.87422900  0.25244400  0.86786800  1
  Li  Li6  1  0.12578800  0.74752500  0.13215900  1
  Li  Li7  1  0.62576700  0.74736400  0.64102700  1
  Fe  Fe8  1  0.25038000  0.49971200  0.25087000  1
  Fe  Fe9  1  0.74970000  0.50018300  0.74913700  1
  Fe  Fe10  1  0.44437200  0.11297400  0.08579800  1
  Fe  Fe11  1  0.93077900  0.13913400  0.58550700  1
  Fe  Fe12  1  0.55549700  0.88731800  0.91424200  1
  Fe  Fe13  1  0.06917000  0.86089000  0.41451400  1
  Fe  Fe14  1  0.49994800  0.00000400  0.50004500  1
  Fe  Fe15  1  0.99997200  0.00003800  0.99996300  1
  As  As16  1  0.05193700  0.89493300  0.72372400  1
  As  As17  1  0.55886700  0.88183200  0.24965100  1
  As  As18  1  0.94805800  0.10510900  0.27625600  1
  As  As19  1  0.44100100  0.11835600  0.75037900  1
  As  As20  1  0.30894000  0.38229000  0.97361600  1
  As  As21  1  0.80788300  0.38419600  0.47377900  1
  As  As22  1  0.69110700  0.61761200  0.02642400  1
  As  As23  1  0.19215700  0.61575500  0.52616000  1
loop_
 _atom_site_moment_label
 _atom_site_moment_crystalaxis_x
 _atom_site_moment_crystalaxis_y
 _atom_site_moment_crystalaxis_z
  Li0  -0.00019752  0.00106796  -0.00032913
  Li2  -0.00019752  0.00106796  -0.00032913
  Li4  -0.00019752  0.00106796  -0.00032913
  Li5  0.00079006  -0.00427183  0.00131651
  Li6  0.00079006  -0.00427183  0.00131651
  Li7  -0.00019752  0.00106796  -0.00032913
  Fe8  0.00059255  -0.00320387  0.00098738
  Fe9  0.00217267  -0.01174754  0.00362039
  Fe10  -0.26704116  1.44387967  -0.44497927
  Fe11  0.08552428  -0.46242596  0.14251185
  Fe12  -0.26664613  1.44174375  -0.44432102
  Fe13  0.08552428  -0.46242596  0.14251185
  Fe14  0.33538157  -1.81339325  0.55885710
  Fe15  -0.44875556  2.42640133  -0.74777581
  As16  -0.00059255  0.00320387  -0.00098738
  As17  0.00138261  -0.00747571  0.00230389
  As18  -0.00059255  0.00320387  -0.00098738
  As19  0.00138261  -0.00747571  0.00230389
  As21  -0.00019752  0.00106796  -0.00032913
  As23  -0.00019752  0.00106796  -0.00032913
