# generated using pymatgen
data_KFe2Se3
_symmetry_space_group_name_H-M   'P 1'
_cell_length_a   5.53278842
_cell_length_b   7.57137640
_cell_length_c   7.57124172
_cell_angle_alpha   102.46906490
_cell_angle_beta   89.96396860
_cell_angle_gamma   90.03395916
_symmetry_Int_Tables_number   1
_chemical_formula_structural   KFe2Se3
_chemical_formula_sum   'K2 Fe4 Se6'
_cell_volume   309.68438571
_cell_formula_units_Z   2
loop_
 _symmetry_equiv_pos_site_id
 _symmetry_equiv_pos_as_xyz
  1  'x, y, z'
loop_
 _atom_site_type_symbol
 _atom_site_label
 _atom_site_symmetry_multiplicity
 _atom_site_fract_x
 _atom_site_fract_y
 _atom_site_fract_z
 _atom_site_occupancy
  K  K0  1  0.24990100  0.33301500  0.66782700  1
  K  K1  1  0.75009800  0.66782800  0.33301600  1
  Fe  Fe2  1  0.49999900  0.85683700  0.85683500  1
  Fe  Fe3  1  0.50000000  0.14237800  0.14237700  1
  Fe  Fe4  1  0.99999900  0.85693600  0.85693500  1
  Fe  Fe5  1  0.00000100  0.14241100  0.14240900  1
  Se  Se6  1  0.24988100  0.87886900  0.12031300  1
  Se  Se7  1  0.75011600  0.12030500  0.87886000  1
  Se  Se8  1  0.25017800  0.83336900  0.60634800  1
  Se  Se9  1  0.74982900  0.60635600  0.83338300  1
  Se  Se10  1  0.74985900  0.16865200  0.39304600  1
  Se  Se11  1  0.25014000  0.39304500  0.16865100  1
loop_
 _atom_site_moment_label
 _atom_site_moment_crystalaxis_x
 _atom_site_moment_crystalaxis_y
 _atom_site_moment_crystalaxis_z
  Fe2  0.00085031  0.01041927  -2.68273148
  Fe3  0.00084968  0.01041151  -2.68073317
  Fe4  -0.00084714  -0.01038047  2.67273993
  Fe5  -0.00084683  -0.01037659  2.67174077
  Se6  -0.00000063  -0.00000776  0.00199831
  Se7  -0.00000063  -0.00000776  0.00199831
  Se8  -0.00000063  -0.00000776  0.00199831
  Se9  -0.00000063  -0.00000776  0.00199831
  Se10  -0.00000063  -0.00000776  0.00199831
  Se11  -0.00000063  -0.00000776  0.00199831
