# generated using pymatgen
data_Rb2MnBi2
_symmetry_space_group_name_H-M   'P 1'
_cell_length_a   5.11994481
_cell_length_b   5.11969090
_cell_length_c   17.44969106
_cell_angle_alpha   81.74437931
_cell_angle_beta   81.74473936
_cell_angle_gamma   89.95735818
_symmetry_Int_Tables_number   1
_chemical_formula_structural   Rb2MnBi2
_chemical_formula_sum   'Rb4 Mn2 Bi4'
_cell_volume   447.87812339
_cell_formula_units_Z   2
loop_
 _symmetry_equiv_pos_site_id
 _symmetry_equiv_pos_as_xyz
  1  'x, y, z'
loop_
 _atom_site_type_symbol
 _atom_site_label
 _atom_site_symmetry_multiplicity
 _atom_site_fract_x
 _atom_site_fract_y
 _atom_site_fract_z
 _atom_site_occupancy
  Rb  Rb0  1  0.18264600  0.68268900  0.63431900  1
  Rb  Rb1  1  0.68268700  0.18270400  0.63429300  1
  Rb  Rb2  1  0.31730000  0.81730900  0.36570700  1
  Rb  Rb3  1  0.81730800  0.31735800  0.36568100  1
  Mn  Mn4  1  0.49991400  0.00008500  0.00000000  1
  Mn  Mn5  1  0.00005100  0.49995100  0.00000000  1
  Bi  Bi6  1  0.42096200  0.92092700  0.15775300  1
  Bi  Bi7  1  0.92079900  0.42074200  0.15774200  1
  Bi  Bi8  1  0.07926000  0.57920000  0.84225700  1
  Bi  Bi9  1  0.57907400  0.07903600  0.84224700  1
loop_
 _atom_site_moment_label
 _atom_site_moment_crystalaxis_x
 _atom_site_moment_crystalaxis_y
 _atom_site_moment_crystalaxis_z
  Rb0  0.00044453  0.00044453  -0.00306377
  Rb1  -0.00044453  -0.00044453  0.00306377
  Rb2  -0.00044453  -0.00044453  0.00306377
  Rb3  0.00044453  0.00044453  -0.00306377
  Mn4  0.60901203  0.60900957  -4.19737174
  Mn5  -0.60723389  -0.60723144  4.18511664
  Bi6  -0.03082105  -0.03082092  0.21242173
  Bi7  0.03067287  0.03067274  -0.21140047
  Bi8  0.03067287  0.03067274  -0.21140047
  Bi9  -0.03082105  -0.03082092  0.21242173
