# generated using pymatgen
data_BaMnBi2
_symmetry_space_group_name_H-M   'P 1'
_cell_length_a   4.64402777
_cell_length_b   12.73307929
_cell_length_c   4.64401821
_cell_angle_alpha   100.51367712
_cell_angle_beta   90.00462544
_cell_angle_gamma   100.51374614
_symmetry_Int_Tables_number   1
_chemical_formula_structural   BaMnBi2
_chemical_formula_sum   'Ba2 Mn2 Bi4'
_cell_volume   265.31197866
_cell_formula_units_Z   2
loop_
 _symmetry_equiv_pos_site_id
 _symmetry_equiv_pos_as_xyz
  1  'x, y, z'
loop_
 _atom_site_type_symbol
 _atom_site_label
 _atom_site_symmetry_multiplicity
 _atom_site_fract_x
 _atom_site_fract_y
 _atom_site_fract_z
 _atom_site_occupancy
  Ba  Ba0  1  0.88414100  0.76816700  0.88414600  1
  Ba  Ba1  1  0.11585500  0.23183400  0.11585900  1
  Mn  Mn2  1  0.25000000  0.50000000  0.75000000  1
  Mn  Mn3  1  0.75000900  0.50000000  0.24998900  1
  Bi  Bi4  1  0.99999000  0.99999200  0.49999400  1
  Bi  Bi5  1  0.50000600  0.00000800  0.00001300  1
  Bi  Bi6  1  0.68313300  0.36640300  0.68313200  1
  Bi  Bi7  1  0.31686600  0.63359700  0.31686700  1
loop_
 _atom_site_moment_label
 _atom_site_moment_crystalaxis_x
 _atom_site_moment_crystalaxis_y
 _atom_site_moment_crystalaxis_z
  Mn2  0.04599577  -3.88970826  0.04599856
  Mn3  -0.04597222  3.88771712  -0.04597502
  Bi6  -0.00001177  0.00099557  -0.00001177
  Bi7  -0.00001177  0.00099557  -0.00001177
