# generated using pymatgen
data_Ca(MnGe)2
_symmetry_space_group_name_H-M   'P 1'
_cell_length_a   4.11439728
_cell_length_b   4.11436815
_cell_length_c   6.11921400
_cell_angle_alpha   109.62693499
_cell_angle_beta   109.62690458
_cell_angle_gamma   90.04537143
_symmetry_Int_Tables_number   1
_chemical_formula_structural   Ca(MnGe)2
_chemical_formula_sum   'Ca1 Mn2 Ge2'
_cell_volume   91.14302631
_cell_formula_units_Z   1
loop_
 _symmetry_equiv_pos_site_id
 _symmetry_equiv_pos_as_xyz
  1  'x, y, z'
loop_
 _atom_site_type_symbol
 _atom_site_label
 _atom_site_symmetry_multiplicity
 _atom_site_fract_x
 _atom_site_fract_y
 _atom_site_fract_z
 _atom_site_occupancy
  Ca  Ca0  1  0.00000000  0.99999900  0.00000100  1
  Mn  Mn1  1  0.25005100  0.74994700  0.49999800  1
  Mn  Mn2  1  0.74994800  0.25005200  0.49999900  1
  Ge  Ge3  1  0.37914500  0.37914500  0.75852600  1
  Ge  Ge4  1  0.62085600  0.62085800  0.24147600  1
loop_
 _atom_site_moment_label
 _atom_site_moment_crystalaxis_x
 _atom_site_moment_crystalaxis_y
 _atom_site_moment_crystalaxis_z
  Mn1  -0.05136573  -0.05136252  -3.09483902
  Mn2  0.05134895  0.05134574  3.09382796
