# generated using pymatgen
data_LiMnP
_symmetry_space_group_name_H-M   'P 1'
_cell_length_a   3.63796200
_cell_length_b   3.63796000
_cell_length_c   12.35596700
_cell_angle_alpha   89.99996107
_cell_angle_beta   90.00008434
_cell_angle_gamma   89.99996850
_symmetry_Int_Tables_number   1
_chemical_formula_structural   LiMnP
_chemical_formula_sum   'Li4 Mn4 P4'
_cell_volume   163.52826075
_cell_formula_units_Z   4
loop_
 _symmetry_equiv_pos_site_id
 _symmetry_equiv_pos_as_xyz
  1  'x, y, z'
loop_
 _atom_site_type_symbol
 _atom_site_label
 _atom_site_symmetry_multiplicity
 _atom_site_fract_x
 _atom_site_fract_y
 _atom_site_fract_z
 _atom_site_occupancy
  Li  Li0  1  0.00000000  0.50000000  0.17531900  1
  Li  Li1  1  0.99999900  0.49999900  0.67530700  1
  Li  Li2  1  0.50000000  0.00000000  0.32469200  1
  Li  Li3  1  0.49999900  0.00000100  0.82468100  1
  Mn  Mn4  1  0.00000000  0.00000000  0.50000000  1
  Mn  Mn5  1  0.50000100  0.50000000  0.50000000  1
  Mn  Mn6  1  0.99999900  0.99999900  0.00000000  1
  Mn  Mn7  1  0.50000100  0.50000000  0.00000000  1
  P  P8  1  0.00000000  0.50000100  0.38592600  1
  P  P9  1  0.00000100  0.49999900  0.88591200  1
  P  P10  1  0.50000000  0.00000000  0.11408900  1
  P  P11  1  0.50000000  0.99999900  0.61407400  1
loop_
 _atom_site_moment_label
 _atom_site_moment_crystalaxis_x
 _atom_site_moment_crystalaxis_y
 _atom_site_moment_crystalaxis_z
  Li0  0.00000000  0.00000000  -0.00100000
  Li1  0.00000000  0.00000000  0.00100000
  Li2  0.00000000  0.00000000  0.00100000
  Li3  0.00000000  0.00000000  -0.00100000
  Mn4  -0.00000102  0.00000064  -1.57200000
  Mn5  -0.00000102  0.00000064  -1.57500000
  Mn6  0.00000102  -0.00000064  1.57200000
  Mn7  0.00000102  -0.00000064  1.57300000
  P8  0.00000006  -0.00000003  0.08600000
  P9  -0.00000006  0.00000003  -0.08600000
  P10  -0.00000006  0.00000003  -0.08600000
  P11  0.00000006  -0.00000003  0.08600000
