# generated using pymatgen
data_CsMnBi
_symmetry_space_group_name_H-M   'P 1'
_cell_length_a   4.85055200
_cell_length_b   4.85055600
_cell_length_c   18.82748300
_cell_angle_alpha   89.99995812
_cell_angle_beta   90.00000877
_cell_angle_gamma   90.00002362
_symmetry_Int_Tables_number   1
_chemical_formula_structural   CsMnBi
_chemical_formula_sum   'Cs4 Mn4 Bi4'
_cell_volume   442.97064977
_cell_formula_units_Z   4
loop_
 _symmetry_equiv_pos_site_id
 _symmetry_equiv_pos_as_xyz
  1  'x, y, z'
loop_
 _atom_site_type_symbol
 _atom_site_label
 _atom_site_symmetry_multiplicity
 _atom_site_fract_x
 _atom_site_fract_y
 _atom_site_fract_z
 _atom_site_occupancy
  Cs  Cs0  1  0.99999800  0.49999800  0.17130800  1
  Cs  Cs1  1  0.00000300  0.50000100  0.67130900  1
  Cs  Cs2  1  0.50000100  0.00000200  0.32869100  1
  Cs  Cs3  1  0.49999800  0.99999900  0.82869200  1
  Mn  Mn4  1  0.00000100  0.00000300  0.50000000  1
  Mn  Mn5  1  0.49999800  0.49999700  0.99999900  1
  Mn  Mn6  1  0.99999700  0.99999700  0.00000000  1
  Mn  Mn7  1  0.50000500  0.50000200  0.50000000  1
  Bi  Bi8  1  0.00000300  0.50000300  0.41772900  1
  Bi  Bi9  1  0.99999500  0.49999800  0.91772900  1
  Bi  Bi10  1  0.49999900  0.99999800  0.08227100  1
  Bi  Bi11  1  0.50000300  0.00000200  0.58227100  1
loop_
 _atom_site_moment_label
 _atom_site_moment_crystalaxis_x
 _atom_site_moment_crystalaxis_y
 _atom_site_moment_crystalaxis_z
  Mn4  0.00000021  0.00000127  -4.00000000
  Mn5  0.00000021  0.00000128  -4.00100000
  Mn6  -0.00000021  -0.00000128  4.00100000
  Mn7  -0.00000021  -0.00000128  4.00100000
