# generated using pymatgen
data_Na(CrS2)2
_symmetry_space_group_name_H-M   'P 1'
_cell_length_a   7.27149481
_cell_length_b   7.26801848
_cell_length_c   7.29564309
_cell_angle_alpha   93.10845551
_cell_angle_beta   118.14255756
_cell_angle_gamma   118.20471410
_symmetry_Int_Tables_number   1
_chemical_formula_structural   Na(CrS2)2
_chemical_formula_sum   'Na2 Cr4 S8'
_cell_volume   279.91450214
_cell_formula_units_Z   2
loop_
 _symmetry_equiv_pos_site_id
 _symmetry_equiv_pos_as_xyz
  1  'x, y, z'
loop_
 _atom_site_type_symbol
 _atom_site_label
 _atom_site_symmetry_multiplicity
 _atom_site_fract_x
 _atom_site_fract_y
 _atom_site_fract_z
 _atom_site_occupancy
  Na  Na0  1  0.00151500  0.00151100  0.00217700  1
  Na  Na1  1  0.49847000  0.74851800  0.24784000  1
  Cr  Cr2  1  0.25011200  0.37506400  0.62511700  1
  Cr  Cr3  1  0.74994700  0.37487600  0.62496300  1
  Cr  Cr4  1  0.74996600  0.37507500  0.12504000  1
  Cr  Cr5  1  0.25008900  0.87501800  0.62501000  1
  S  S6  1  0.20500600  0.61211800  0.81708600  1
  S  S7  1  0.79503800  0.18256700  0.38836400  1
  S  S8  1  0.79500800  0.61211000  0.40697500  1
  S  S9  1  0.20565500  0.59325200  0.38834400  1
  S  S10  1  0.29493000  0.13778900  0.43282100  1
  S  S11  1  0.29432100  0.15677200  0.86164100  1
  S  S12  1  0.70496100  0.13785100  0.84302600  1
  S  S13  1  0.70498200  0.56748100  0.86159700  1
loop_
 _atom_site_moment_label
 _atom_site_moment_crystalaxis_x
 _atom_site_moment_crystalaxis_y
 _atom_site_moment_crystalaxis_z
  Na0  -0.00000527  -0.00016102  0.00198251
  Na1  -0.00000527  -0.00016102  0.00198251
  Cr2  -0.00733484  -0.22389932  2.75668562
  Cr3  -0.00732166  -0.22349676  2.75172934
  Cr4  -0.00737177  -0.22502646  2.77056322
  Cr5  -0.00731374  -0.22325523  2.74875556
  S6  0.00046420  0.01416982  -0.17446123
  S7  0.00047738  0.01457238  -0.17941751
  S8  0.00047738  0.01457238  -0.17941751
  S9  0.00047475  0.01449187  -0.17842625
  S10  0.00046420  0.01416982  -0.17446123
  S11  0.00047475  0.01449187  -0.17842625
  S12  0.00047738  0.01457238  -0.17941751
  S13  0.00047738  0.01457238  -0.17941751
