# generated using pymatgen
data_K2MnAs2
_symmetry_space_group_name_H-M   'P 1'
_cell_length_a   8.08917643
_cell_length_b   13.46339541
_cell_length_c   9.52083688
_cell_angle_alpha   81.29655048
_cell_angle_beta   115.14595001
_cell_angle_gamma   117.42379054
_symmetry_Int_Tables_number   1
_chemical_formula_structural   K2MnAs2
_chemical_formula_sum   'K8 Mn4 As8'
_cell_volume   831.87415805
_cell_formula_units_Z   4
loop_
 _symmetry_equiv_pos_site_id
 _symmetry_equiv_pos_as_xyz
  1  'x, y, z'
loop_
 _atom_site_type_symbol
 _atom_site_label
 _atom_site_symmetry_multiplicity
 _atom_site_fract_x
 _atom_site_fract_y
 _atom_site_fract_z
 _atom_site_occupancy
  K  K0  1  0.12976600  0.67266500  0.26006900  1
  K  K1  1  0.37585200  0.67769800  0.74645000  1
  K  K2  1  0.62780000  0.67138000  0.25893100  1
  K  K3  1  0.87671600  0.67855000  0.74707400  1
  K  K4  1  0.12346500  0.32037700  0.25465400  1
  K  K5  1  0.37536500  0.33074700  0.74421600  1
  K  K6  1  0.62283500  0.31909600  0.25578500  1
  K  K7  1  0.87523900  0.33127100  0.74344300  1
  Mn  Mn8  1  0.44207600  0.00082900  0.38175100  1
  Mn  Mn9  1  0.06208600  0.99927700  0.62648300  1
  Mn  Mn10  1  0.57672500  0.99939200  0.65468500  1
  Mn  Mn11  1  0.94641500  0.00045000  0.39211200  1
  As  As12  1  0.26435700  0.11853200  0.35156100  1
  As  As13  1  0.41852100  0.12470400  0.64705900  1
  As  As14  1  0.77196200  0.11997100  0.35387500  1
  As  As15  1  0.92098900  0.12463500  0.64942200  1
  As  As16  1  0.07547400  0.88110400  0.33768300  1
  As  As17  1  0.21781200  0.87385200  0.63164300  1
  As  As18  1  0.57908800  0.88211900  0.33426400  1
  As  As19  1  0.71746000  0.87335000  0.62883900  1
loop_
 _atom_site_moment_label
 _atom_site_moment_crystalaxis_x
 _atom_site_moment_crystalaxis_y
 _atom_site_moment_crystalaxis_z
  K0  -0.00043401  -0.00215712  -0.00006056
  K1  0.00065102  0.00323567  0.00009085
  K2  0.00086803  0.00431423  0.00012113
  K3  -0.00043401  -0.00215712  -0.00006056
  K4  0.00086803  0.00431423  0.00012113
  K5  -0.00043401  -0.00215712  -0.00006056
  K6  -0.00043401  -0.00215712  -0.00006056
  K7  0.00065102  0.00323567  0.00009085
  Mn8  -0.65167205  -3.23890975  -0.09093819
  Mn9  -0.53383724  -2.65325275  -0.07449482
  Mn10  0.72068028  3.58189121  0.10056801
  Mn11  0.44464736  2.20996540  0.06204873
  As12  0.00477415  0.02372828  0.00066621
  As13  -0.00325511  -0.01617837  -0.00045424
  As14  0.00455715  0.02264972  0.00063593
  As15  -0.00347211  -0.01725693  -0.00048452
  As16  0.00455715  0.02264972  0.00063593
  As17  -0.00347211  -0.01725693  -0.00048452
  As18  0.00455715  0.02264972  0.00063593
  As19  -0.00325511  -0.01617837  -0.00045424
