# generated using pymatgen
data_NaFeAs
_symmetry_space_group_name_H-M   'P 1'
_cell_length_a   5.50752211
_cell_length_b   5.56129605
_cell_length_c   7.79995149
_cell_angle_alpha   100.10899900
_cell_angle_beta   99.97193038
_cell_angle_gamma   91.21376318
_symmetry_Int_Tables_number   1
_chemical_formula_structural   NaFeAs
_chemical_formula_sum   'Na4 Fe4 As4'
_cell_volume   231.31444174
_cell_formula_units_Z   4
loop_
 _symmetry_equiv_pos_site_id
 _symmetry_equiv_pos_as_xyz
  1  'x, y, z'
loop_
 _atom_site_type_symbol
 _atom_site_label
 _atom_site_symmetry_multiplicity
 _atom_site_fract_x
 _atom_site_fract_y
 _atom_site_fract_z
 _atom_site_occupancy
  Na  Na0  1  0.66951200  0.41947900  0.17858400  1
  Na  Na1  1  0.16957500  0.91962700  0.17858400  1
  Na  Na2  1  0.83042300  0.08052500  0.82140800  1
  Na  Na3  1  0.33048700  0.58038000  0.82141100  1
  Fe  Fe4  1  0.49964100  0.24957600  0.49835800  1
  Fe  Fe5  1  0.00035700  0.25039900  0.50164200  1
  Fe  Fe6  1  0.99965000  0.74959000  0.49833100  1
  Fe  Fe7  1  0.50035200  0.75042300  0.50166900  1
  As  As8  1  0.79580700  0.54579200  0.68334900  1
  As  As9  1  0.29599300  0.04617500  0.68335300  1
  As  As10  1  0.70403700  0.95422500  0.31665200  1
  As  As11  1  0.20416200  0.45381300  0.31665900  1
loop_
 _atom_site_moment_label
 _atom_site_moment_crystalaxis_x
 _atom_site_moment_crystalaxis_y
 _atom_site_moment_crystalaxis_z
  Na0  -0.00035973  -0.00036180  -0.00099817
  Na1  0.00035973  0.00036180  0.00099817
  Na2  -0.00035973  -0.00036180  -0.00099817
  Na3  0.00035973  0.00036180  0.00099817
  Fe4  -0.68493189  -0.68885856  -1.90051426
  Fe5  -0.68565136  -0.68958215  -1.90251060
  Fe6  0.68493189  0.68885856  1.90051426
  Fe7  0.68745002  0.69139112  1.90750145
  As8  0.00035973  0.00036180  0.00099817
  As9  -0.00035973  -0.00036180  -0.00099817
  As10  0.00035973  0.00036180  0.00099817
  As11  -0.00035973  -0.00036180  -0.00099817
