# generated using pymatgen
data_Mg3MnTe4
_symmetry_space_group_name_H-M   'P 1'
_cell_length_a   6.45032297
_cell_length_b   6.45031307
_cell_length_c   26.27398776
_cell_angle_alpha   82.94139667
_cell_angle_beta   82.94124535
_cell_angle_gamma   90.02321395
_symmetry_Int_Tables_number   1
_chemical_formula_structural   Mg3MnTe4
_chemical_formula_sum   'Mg12 Mn4 Te16'
_cell_volume   1076.53003365
_cell_formula_units_Z   4
loop_
 _symmetry_equiv_pos_site_id
 _symmetry_equiv_pos_as_xyz
  1  'x, y, z'
loop_
 _atom_site_type_symbol
 _atom_site_label
 _atom_site_symmetry_multiplicity
 _atom_site_fract_x
 _atom_site_fract_y
 _atom_site_fract_z
 _atom_site_occupancy
  Mg  Mg0  1  0.62501100  0.12500800  0.75000300  1
  Mg  Mg1  1  0.37500900  0.87500900  0.25000100  1
  Mg  Mg2  1  0.12501000  0.62501000  0.75000000  1
  Mg  Mg3  1  0.87500800  0.37500800  0.25000200  1
  Mg  Mg4  1  0.56130000  0.56130100  0.87737500  1
  Mg  Mg5  1  0.31130100  0.31130100  0.37737400  1
  Mg  Mg6  1  0.06130000  0.06130000  0.87737600  1
  Mg  Mg7  1  0.81130200  0.81130100  0.37737400  1
  Mg  Mg8  1  0.68862900  0.68863100  0.62262600  1
  Mg  Mg9  1  0.43863000  0.43863000  0.12262700  1
  Mg  Mg10  1  0.18862900  0.18863000  0.62262600  1
  Mg  Mg11  1  0.93863000  0.93862900  0.12262700  1
  Mn  Mn12  1  0.50004800  0.00004700  0.99999700  1
  Mn  Mn13  1  0.25004600  0.75004700  0.49999900  1
  Mn  Mn14  1  0.75004700  0.25004700  0.49999900  1
  Mn  Mn15  1  0.00004500  0.50004800  0.99999600  1
  Te  Te16  1  0.90679200  0.40679200  0.68651000  1
  Te  Te17  1  0.65679500  0.15679700  0.18651200  1
  Te  Te18  1  0.40679400  0.90679400  0.68651000  1
  Te  Te19  1  0.15679500  0.65679400  0.18651200  1
  Te  Te20  1  0.34321300  0.34321500  0.81349200  1
  Te  Te21  1  0.09321500  0.09321500  0.31349000  1
  Te  Te22  1  0.84321600  0.84321200  0.81349200  1
  Te  Te23  1  0.59321500  0.59321400  0.31349000  1
  Te  Te24  1  0.47089600  0.47089700  0.55803600  1
  Te  Te25  1  0.22089600  0.22089500  0.05803600  1
  Te  Te26  1  0.97089700  0.97089600  0.55803600  1
  Te  Te27  1  0.72089600  0.72089700  0.05803600  1
  Te  Te28  1  0.77911000  0.27910900  0.94196100  1
  Te  Te29  1  0.52910900  0.02910800  0.44196100  1
  Te  Te30  1  0.27911100  0.77911100  0.94196100  1
  Te  Te31  1  0.02911000  0.52911000  0.44196100  1
loop_
 _atom_site_moment_label
 _atom_site_moment_crystalaxis_x
 _atom_site_moment_crystalaxis_y
 _atom_site_moment_crystalaxis_z
  Mg1  0.00012474  0.00012474  -0.00101546
  Mg3  -0.00012474  -0.00012474  0.00101546
  Mn12  0.51980212  0.51979620  -4.23141439
  Mn13  0.51980212  0.51979620  -4.23141439
  Mn14  -0.51980212  -0.51979620  4.23141439
  Mn15  -0.51980212  -0.51979620  4.23141439
