# generated using pymatgen
data_Rb2Mn3Te4
_symmetry_space_group_name_H-M   'P 1'
_cell_length_a   6.30086663
_cell_length_b   10.36463199
_cell_length_c   10.36491307
_cell_angle_alpha   85.62444902
_cell_angle_beta   107.70039578
_cell_angle_gamma   72.30361895
_symmetry_Int_Tables_number   1
_chemical_formula_structural   Rb2Mn3Te4
_chemical_formula_sum   'Rb4 Mn6 Te8'
_cell_volume   603.62648962
_cell_formula_units_Z   2
loop_
 _symmetry_equiv_pos_site_id
 _symmetry_equiv_pos_as_xyz
  1  'x, y, z'
loop_
 _atom_site_type_symbol
 _atom_site_label
 _atom_site_symmetry_multiplicity
 _atom_site_fract_x
 _atom_site_fract_y
 _atom_site_fract_z
 _atom_site_occupancy
  Rb  Rb0  1  0.13736900  0.62442600  0.37556900  1
  Rb  Rb1  1  0.86264100  0.37556100  0.62444000  1
  Rb  Rb2  1  0.61378300  0.12440500  0.87559900  1
  Rb  Rb3  1  0.38622800  0.87558500  0.12441200  1
  Mn  Mn4  1  0.99997400  0.25004500  0.25000200  1
  Mn  Mn5  1  0.74988400  0.00009200  0.49982100  1
  Mn  Mn6  1  0.25010700  0.49984000  0.00007300  1
  Mn  Mn7  1  0.00002700  0.74995600  0.74999800  1
  Mn  Mn8  1  0.25010600  0.99991800  0.50018000  1
  Mn  Mn9  1  0.74992300  0.50014000  0.99995400  1
  Te  Te10  1  0.11126200  0.98158300  0.72485700  1
  Te  Te11  1  0.88868200  0.01840600  0.27510000  1
  Te  Te12  1  0.88871100  0.72488000  0.98156800  1
  Te  Te13  1  0.63182800  0.77525200  0.51845500  1
  Te  Te14  1  0.11132500  0.27511700  0.01843000  1
  Te  Te15  1  0.36819800  0.22477800  0.48156700  1
  Te  Te16  1  0.36815300  0.51847800  0.77523200  1
  Te  Te17  1  0.63179700  0.48153800  0.22474700  1
loop_
 _atom_site_moment_label
 _atom_site_moment_crystalaxis_x
 _atom_site_moment_crystalaxis_y
 _atom_site_moment_crystalaxis_z
  Mn4  -2.50761945  0.02185665  -4.03495875
  Mn5  -2.42642860  0.02114899  -3.90431624
  Mn6  -2.42642860  0.02114899  -3.90431624
  Mn7  2.50761945  -0.02185665  4.03495875
  Mn8  2.42704838  -0.02115439  3.90531351
  Mn9  2.42642860  -0.02114899  3.90431624
  Te10  0.00371866  -0.00003241  0.00598363
  Te11  -0.00371866  0.00003241  -0.00598363
  Te12  0.00371866  -0.00003241  0.00598363
  Te13  0.00371866  -0.00003241  0.00598363
  Te14  -0.00371866  0.00003241  -0.00598363
  Te15  -0.00371866  0.00003241  -0.00598363
  Te16  0.00371866  -0.00003241  0.00598363
  Te17  -0.00371866  0.00003241  -0.00598363
