# generated using pymatgen
data_Na2Mn3Te4
_symmetry_space_group_name_H-M   'P 1'
_cell_length_a   4.41321003
_cell_length_b   14.22093371
_cell_length_c   8.88843446
_cell_angle_alpha   84.95641972
_cell_angle_beta   75.62108616
_cell_angle_gamma   98.95576549
_symmetry_Int_Tables_number   1
_chemical_formula_structural   Na2Mn3Te4
_chemical_formula_sum   'Na4 Mn6 Te8'
_cell_volume   529.08525422
_cell_formula_units_Z   2
loop_
 _symmetry_equiv_pos_site_id
 _symmetry_equiv_pos_as_xyz
  1  'x, y, z'
loop_
 _atom_site_type_symbol
 _atom_site_label
 _atom_site_symmetry_multiplicity
 _atom_site_fract_x
 _atom_site_fract_y
 _atom_site_fract_z
 _atom_site_occupancy
  Na  Na0  1  0.88095500  0.11875400  0.35690300  1
  Na  Na1  1  0.38095400  0.61875500  0.85690800  1
  Na  Na2  1  0.63069800  0.37263400  0.11146700  1
  Na  Na3  1  0.13070000  0.87263600  0.61146600  1
  Mn  Mn4  1  0.04667600  0.60785100  0.51383600  1
  Mn  Mn5  1  0.20157700  0.14605700  0.74383100  1
  Mn  Mn6  1  0.43613400  0.88755000  0.01570600  1
  Mn  Mn7  1  0.54667800  0.10785100  0.01383200  1
  Mn  Mn8  1  0.70157400  0.64605900  0.24383900  1
  Mn  Mn9  1  0.93613200  0.38755100  0.51570600  1
  Te  Te10  1  0.39589300  0.27357600  0.48167500  1
  Te  Te11  1  0.89589100  0.77357600  0.98167600  1
  Te  Te12  1  0.63998100  0.02567300  0.74624600  1
  Te  Te13  1  0.13998100  0.52567400  0.24624800  1
  Te  Te14  1  0.11137800  0.22594900  0.00272100  1
  Te  Te15  1  0.61138300  0.72594900  0.50272900  1
  Te  Te16  1  0.85699700  0.47745500  0.76252500  1
  Te  Te17  1  0.35699800  0.97745400  0.26252300  1
loop_
 _atom_site_moment_label
 _atom_site_moment_crystalaxis_x
 _atom_site_moment_crystalaxis_y
 _atom_site_moment_crystalaxis_z
  Na0  0.00100879  0.00003258  -0.00200144
  Na1  -0.00100879  -0.00003258  0.00200144
  Na2  0.00050440  0.00001629  -0.00100072
  Na3  -0.00050440  -0.00001629  0.00100072
  Mn4  1.97673221  0.06384676  -3.92182240
  Mn5  2.02868511  0.06552479  -4.02489658
  Mn6  2.06903688  0.06682812  -4.10495419
  Mn7  -1.97673221  -0.06384676  3.92182240
  Mn8  -2.02868511  -0.06552479  4.02489658
  Mn9  -2.06853248  -0.06681183  4.10395347
  Te10  -0.00453957  -0.00014662  0.00900648
  Te11  0.00453957  0.00014662  -0.00900648
  Te12  0.00857475  0.00027696  -0.01701224
  Te13  -0.00857475  -0.00027696  0.01701224
  Te14  -0.00353078  -0.00011404  0.00700504
  Te15  0.00353078  0.00011404  -0.00700504
  Te16  0.00706156  0.00022808  -0.01401008
  Te17  -0.00706156  -0.00022808  0.01401008
