# generated using pymatgen
data_Na2(CrSe2)3
_symmetry_space_group_name_H-M   'P 1'
_cell_length_a   6.32684836
_cell_length_b   6.32713948
_cell_length_c   7.40738776
_cell_angle_alpha   81.79617157
_cell_angle_beta   73.41701167
_cell_angle_gamma   60.00153907
_symmetry_Int_Tables_number   1
_chemical_formula_structural   Na2(CrSe2)3
_chemical_formula_sum   'Na2 Cr3 Se6'
_cell_volume   246.12029027
_cell_formula_units_Z   1
loop_
 _symmetry_equiv_pos_site_id
 _symmetry_equiv_pos_as_xyz
  1  'x, y, z'
loop_
 _atom_site_type_symbol
 _atom_site_label
 _atom_site_symmetry_multiplicity
 _atom_site_fract_x
 _atom_site_fract_y
 _atom_site_fract_z
 _atom_site_occupancy
  Na  Na0  1  0.16656900  0.66686100  0.50000000  1
  Na  Na1  1  0.83343200  0.33313600  0.50000000  1
  Cr  Cr2  1  0.00000000  0.00000000  0.00000000  1
  Cr  Cr3  1  0.33288200  0.33423700  0.00000000  1
  Cr  Cr4  1  0.66711700  0.66576600  0.00000000  1
  Se  Se5  1  0.93297900  0.66737900  0.19819500  1
  Se  Se6  1  0.26772900  0.00000700  0.19890800  1
  Se  Se7  1  0.60035100  0.33261300  0.19819400  1
  Se  Se8  1  0.73226400  0.00000800  0.80109200  1
  Se  Se9  1  0.06703600  0.33261300  0.80180600  1
  Se  Se10  1  0.39964200  0.66737900  0.80180500  1
loop_
 _atom_site_moment_label
 _atom_site_moment_crystalaxis_x
 _atom_site_moment_crystalaxis_y
 _atom_site_moment_crystalaxis_z
  Na0  0.00000141  0.00000000  0.00299960
  Na1  0.00000141  0.00000000  0.00299960
  Cr2  0.00136309  0.00000045  2.88961061
  Cr3  0.00136168  0.00000045  2.88661101
  Cr4  0.00136168  0.00000045  2.88661101
  Se5  -0.00007405  -0.00000002  -0.15697885
  Se6  -0.00007358  -0.00000002  -0.15597898
  Se7  -0.00007405  -0.00000002  -0.15697885
  Se8  -0.00007358  -0.00000002  -0.15597898
  Se9  -0.00007405  -0.00000002  -0.15697885
  Se10  -0.00007405  -0.00000002  -0.15697885
