# generated using pymatgen
data_BaFe2Se3
_symmetry_space_group_name_H-M   'P 1'
_cell_length_a   5.42910017
_cell_length_b   7.50668672
_cell_length_c   7.50715004
_cell_angle_alpha   104.99599443
_cell_angle_beta   90.02279761
_cell_angle_gamma   89.97895550
_symmetry_Int_Tables_number   1
_chemical_formula_structural   BaFe2Se3
_chemical_formula_sum   'Ba2 Fe4 Se6'
_cell_volume   295.53104117
_cell_formula_units_Z   2
loop_
 _symmetry_equiv_pos_site_id
 _symmetry_equiv_pos_as_xyz
  1  'x, y, z'
loop_
 _atom_site_type_symbol
 _atom_site_label
 _atom_site_symmetry_multiplicity
 _atom_site_fract_x
 _atom_site_fract_y
 _atom_site_fract_z
 _atom_site_occupancy
  Ba  Ba0  1  0.25006300  0.31389200  0.68598000  1
  Ba  Ba1  1  0.74993500  0.68597900  0.31389300  1
  Fe  Fe2  1  0.50000300  0.84926200  0.84927500  1
  Fe  Fe3  1  0.49999700  0.15075900  0.15074200  1
  Fe  Fe4  1  0.00001100  0.84897400  0.84897400  1
  Fe  Fe5  1  0.99998900  0.15110600  0.15111900  1
  Se  Se6  1  0.24994400  0.88517200  0.11486300  1
  Se  Se7  1  0.75006700  0.11487100  0.88518100  1
  Se  Se8  1  0.25008900  0.83669500  0.58653500  1
  Se  Se9  1  0.74992500  0.58652100  0.83668000  1
  Se  Se10  1  0.74982600  0.16333900  0.41342200  1
  Se  Se11  1  0.25015000  0.41343200  0.16333600  1
loop_
 _atom_site_moment_label
 _atom_site_moment_crystalaxis_x
 _atom_site_moment_crystalaxis_y
 _atom_site_moment_crystalaxis_z
  Fe2  -0.00047630  0.01713542  -2.44851049
  Fe3  -0.00047650  0.01714240  -2.44950866
  Fe4  0.00047669  -0.01714939  2.45050683
  Fe5  0.00047630  -0.01713542  2.44851049
