# generated using pymatgen
data_KCr5Se8
_symmetry_space_group_name_H-M   'P 1'
_cell_length_a   3.68039789
_cell_length_b   9.00455808
_cell_length_c   9.58252308
_cell_angle_alpha   104.71794287
_cell_angle_beta   101.05987121
_cell_angle_gamma   90.01611106
_symmetry_Int_Tables_number   1
_chemical_formula_structural   KCr5Se8
_chemical_formula_sum   'K1 Cr5 Se8'
_cell_volume   301.04146314
_cell_formula_units_Z   1
loop_
 _symmetry_equiv_pos_site_id
 _symmetry_equiv_pos_as_xyz
  1  'x, y, z'
loop_
 _atom_site_type_symbol
 _atom_site_label
 _atom_site_symmetry_multiplicity
 _atom_site_fract_x
 _atom_site_fract_y
 _atom_site_fract_z
 _atom_site_occupancy
  K  K0  1  0.50002400  0.50000200  0.00001000  1
  Cr  Cr1  1  0.34331300  0.01252600  0.68667200  1
  Cr  Cr2  1  0.65665500  0.98746900  0.31334100  1
  Cr  Cr3  1  0.99996000  0.99999300  0.99995700  1
  Cr  Cr4  1  0.29488800  0.67198100  0.59035400  1
  Cr  Cr5  1  0.70508400  0.32803400  0.40963100  1
  Se  Se6  1  0.57206900  0.16243900  0.14417500  1
  Se  Se7  1  0.42793000  0.83753500  0.85582100  1
  Se  Se8  1  0.08638800  0.82540300  0.17260900  1
  Se  Se9  1  0.91362400  0.17460200  0.82739300  1
  Se  Se10  1  0.17191400  0.48679700  0.34284700  1
  Se  Se11  1  0.82812500  0.51321600  0.65717400  1
  Se  Se12  1  0.24049900  0.15432300  0.48095600  1
  Se  Se13  1  0.75952900  0.84568000  0.51905800  1
loop_
 _atom_site_moment_label
 _atom_site_moment_crystalaxis_x
 _atom_site_moment_crystalaxis_y
 _atom_site_moment_crystalaxis_z
  K0  0.00000323  -0.00000256  0.00399997
  Cr1  -0.00224129  0.00177746  -2.77897690
  Cr2  -0.00224129  0.00177746  -2.77897690
  Cr3  0.00224049  -0.00177682  2.77797691
  Cr4  0.00231711  -0.00183758  2.87297612
  Cr5  0.00231711  -0.00183758  2.87297612
  Se6  -0.00002258  0.00001791  -0.02799977
  Se7  -0.00002258  0.00001791  -0.02799977
  Se8  0.00002581  -0.00002047  0.03199973
  Se9  0.00002581  -0.00002047  0.03199973
  Se10  -0.00010404  0.00008251  -0.12899893
  Se11  -0.00010404  0.00008251  -0.12899893
  Se12  0.00003145  -0.00002494  0.03899968
  Se13  0.00003145  -0.00002494  0.03899968
