# generated using pymatgen
data_LiMnSb2
_symmetry_space_group_name_H-M   'P 1'
_cell_length_a   5.79097558
_cell_length_b   10.44678893
_cell_length_c   7.44705637
_cell_angle_alpha   69.07021904
_cell_angle_beta   90.00578723
_cell_angle_gamma   123.39150594
_symmetry_Int_Tables_number   1
_chemical_formula_structural   LiMnSb2
_chemical_formula_sum   'Li4 Mn4 Sb8'
_cell_volume   340.00135553
_cell_formula_units_Z   4
loop_
 _symmetry_equiv_pos_site_id
 _symmetry_equiv_pos_as_xyz
  1  'x, y, z'
loop_
 _atom_site_type_symbol
 _atom_site_label
 _atom_site_symmetry_multiplicity
 _atom_site_fract_x
 _atom_site_fract_y
 _atom_site_fract_z
 _atom_site_occupancy
  Li  Li0  1  0.49879100  0.50046500  0.74780000  1
  Li  Li1  1  0.49811800  0.49928800  0.24837000  1
  Li  Li2  1  0.99784800  0.49814000  0.99320600  1
  Li  Li3  1  0.99737800  0.50031600  0.49212600  1
  Mn  Mn4  1  0.50080800  0.00020900  0.26433600  1
  Mn  Mn5  1  0.00062700  0.00013000  0.98492900  1
  Mn  Mn6  1  0.50090200  0.00023500  0.76740500  1
  Mn  Mn7  1  0.00068800  0.00014000  0.49048200  1
  Sb  Sb8  1  0.56635200  0.22397900  0.89463200  1
  Sb  Sb9  1  0.56730300  0.22272300  0.39567800  1
  Sb  Sb10  1  0.06763200  0.22215000  0.13443200  1
  Sb  Sb11  1  0.06650200  0.22474100  0.63343000  1
  Sb  Sb12  1  0.43376400  0.77752500  0.61884600  1
  Sb  Sb13  1  0.43458700  0.77623900  0.11903500  1
  Sb  Sb14  1  0.93494200  0.77556600  0.85845400  1
  Sb  Sb15  1  0.93375600  0.77815400  0.35683600  1
loop_
 _atom_site_moment_label
 _atom_site_moment_crystalaxis_x
 _atom_site_moment_crystalaxis_y
 _atom_site_moment_crystalaxis_z
  Mn4  -1.10814300  -3.58797102  1.27513366
  Mn5  -1.10346565  -3.57282658  1.26975146
  Mn6  1.10268609  3.57030250  -1.26885442
  Mn7  1.10931234  3.59175713  -1.27647921
  Sb8  0.00350802  0.01135833  -0.00403665
  Sb9  -0.00350802  -0.01135833  0.00403665
  Sb10  0.00389779  0.01262037  -0.00448517
  Sb11  -0.00389779  -0.01262037  0.00448517
  Sb12  -0.00350802  -0.01135833  0.00403665
  Sb13  0.00350802  0.01135833  -0.00403665
  Sb14  -0.00350802  -0.01135833  0.00403665
  Sb15  0.00389779  0.01262037  -0.00448517
