# generated using pymatgen
data_LiMnAs2
_symmetry_space_group_name_H-M   'P 1'
_cell_length_a   3.54762533
_cell_length_b   7.55072362
_cell_length_c   10.36750256
_cell_angle_alpha   105.89493672
_cell_angle_beta   89.99483558
_cell_angle_gamma   89.98505477
_symmetry_Int_Tables_number   1
_chemical_formula_structural   LiMnAs2
_chemical_formula_sum   'Li4 Mn4 As8'
_cell_volume   267.09739544
_cell_formula_units_Z   4
loop_
 _symmetry_equiv_pos_site_id
 _symmetry_equiv_pos_as_xyz
  1  'x, y, z'
loop_
 _atom_site_type_symbol
 _atom_site_label
 _atom_site_symmetry_multiplicity
 _atom_site_fract_x
 _atom_site_fract_y
 _atom_site_fract_z
 _atom_site_occupancy
  Li  Li0  1  0.50017000  0.99698600  0.99547200  1
  Li  Li1  1  0.49989500  0.00000700  0.49715100  1
  Li  Li2  1  0.99980200  0.00040900  0.25352500  1
  Li  Li3  1  0.00028400  0.00318000  0.75507600  1
  Mn  Mn4  1  0.50026000  0.49819700  0.24114600  1
  Mn  Mn5  1  0.99984300  0.50161700  0.50853500  1
  Mn  Mn6  1  0.49958200  0.49962200  0.74189100  1
  Mn  Mn7  1  0.00028000  0.50030900  0.00789900  1
  As  As8  1  0.50036200  0.28239200  0.88411000  1
  As  As9  1  0.50006100  0.28290700  0.38426500  1
  As  As10  1  0.00046400  0.27328900  0.13154300  1
  As  As11  1  0.99971300  0.27457700  0.63214400  1
  As  As12  1  0.49969000  0.72676000  0.61825200  1
  As  As13  1  0.50008400  0.72516400  0.11764200  1
  As  As14  1  0.99955100  0.71765500  0.86592200  1
  As  As15  1  0.99996000  0.71692900  0.36542500  1
loop_
 _atom_site_moment_label
 _atom_site_moment_crystalaxis_x
 _atom_site_moment_crystalaxis_y
 _atom_site_moment_crystalaxis_z
  Li0  0.00000186  0.00396507  -0.00012133
  Li1  -0.00000186  -0.00396507  0.00012133
  Li2  -0.00000186  -0.00396507  0.00012133
  Li3  0.00000186  0.00396507  -0.00012133
  Mn4  -0.00122370  -2.60901396  0.07983658
  Mn5  -0.00122556  -2.61297903  0.07995791
  Mn6  0.00122463  2.61099650  -0.07989724
  Mn7  0.00122417  2.61000523  -0.07986691
  As8  -0.00002836  -0.06046727  0.00185032
  As9  0.00002836  0.06046727  -0.00185032
  As10  0.00001116  0.02379040  -0.00072799
  As11  -0.00001116  -0.02379040  0.00072799
  As12  0.00001116  0.02379040  -0.00072799
  As13  -0.00001116  -0.02379040  0.00072799
  As14  -0.00002836  -0.06046727  0.00185032
  As15  0.00002836  0.06046727  -0.00185032
