# generated using pymatgen
data_BeAlCo2
_symmetry_space_group_name_H-M   'P 1'
_cell_length_a   9.54258625
_cell_length_b   9.55876959
_cell_length_c   13.26473815
_cell_angle_alpha   87.14974275
_cell_angle_beta   92.71581459
_cell_angle_gamma   88.06815551
_symmetry_Int_Tables_number   1
_chemical_formula_structural   BeAlCo2
_chemical_formula_sum   'Be2 Al2 Co4'
_cell_volume   1206.30498431
_cell_formula_units_Z   2
loop_
 _symmetry_equiv_pos_site_id
 _symmetry_equiv_pos_as_xyz
  1  'x, y, z'
loop_
 _atom_site_type_symbol
 _atom_site_label
 _atom_site_symmetry_multiplicity
 _atom_site_fract_x
 _atom_site_fract_y
 _atom_site_fract_z
 _atom_site_occupancy
  Be  Be0  1  0.00003400  0.99995900  0.00003300  1
  Be  Be1  1  0.50012300  0.49987300  0.50010800  1
  Al  Al2  1  0.24980300  0.75019000  0.24980400  1
  Al  Al3  1  0.75008600  0.24991400  0.75007900  1
  Co  Co4  1  0.61976200  0.38023600  0.61974900  1
  Co  Co5  1  0.88030200  0.11970100  0.88029700  1
  Co  Co6  1  0.11964200  0.88033800  0.11967600  1
  Co  Co7  1  0.38024600  0.61978800  0.38025400  1
loop_
 _atom_site_moment_label
 _atom_site_moment_crystalaxis_x
 _atom_site_moment_crystalaxis_y
 _atom_site_moment_crystalaxis_z
  Be0  -0.00302007  -0.00293961  -0.00419684
  Be1  -0.00251673  -0.00244967  -0.00349737
  Al2  -0.02063715  -0.02008731  -0.02867844
  Al3  0.01862377  0.01812757  0.02588054
  Co4  -0.84461319  -0.82210978  -1.17371764
  Co5  -0.88387411  -0.86032465  -1.22827662
  Co6  0.85870685  0.83582794  1.19330291
  Co7  0.88689418  0.86326426  1.23247346
