# generated using pymatgen
data_Sr(FeSb3)4
_symmetry_space_group_name_H-M   'P 1'
_cell_length_a   7.98793445
_cell_length_b   7.98795279
_cell_length_c   7.98791000
_cell_angle_alpha   109.47127080
_cell_angle_beta   109.47109487
_cell_angle_gamma   109.47142763
_symmetry_Int_Tables_number   1
_chemical_formula_structural   Sr(FeSb3)4
_chemical_formula_sum   'Sr1 Fe4 Sb12'
_cell_volume   392.35622692
_cell_formula_units_Z   1
loop_
 _symmetry_equiv_pos_site_id
 _symmetry_equiv_pos_as_xyz
  1  'x, y, z'
loop_
 _atom_site_type_symbol
 _atom_site_label
 _atom_site_symmetry_multiplicity
 _atom_site_fract_x
 _atom_site_fract_y
 _atom_site_fract_z
 _atom_site_occupancy
  Sr  Sr0  1  0.00000000  0.00000000  0.00000000  1
  Fe  Fe1  1  0.50000000  0.50000000  0.50000000  1
  Fe  Fe2  1  0.00000000  0.50000000  0.00000000  1
  Fe  Fe3  1  0.00000000  0.00000000  0.50000000  1
  Fe  Fe4  1  0.50000000  0.00000000  0.00000000  1
  Sb  Sb5  1  0.83717100  0.50095300  0.66378400  1
  Sb  Sb6  1  0.16282900  0.49904700  0.33621600  1
  Sb  Sb7  1  0.83717000  0.17338700  0.33621700  1
  Sb  Sb8  1  0.16283000  0.82661300  0.66378300  1
  Sb  Sb9  1  0.33621600  0.16282900  0.49904700  1
  Sb  Sb10  1  0.66378400  0.83717100  0.50095300  1
  Sb  Sb11  1  0.66378400  0.16283100  0.82661300  1
  Sb  Sb12  1  0.33621600  0.83716900  0.17338600  1
  Sb  Sb13  1  0.17338600  0.33621700  0.83717000  1
  Sb  Sb14  1  0.82661400  0.66378300  0.16283000  1
  Sb  Sb15  1  0.50095300  0.66378300  0.83717100  1
  Sb  Sb16  1  0.49904700  0.33621700  0.16282900  1
loop_
 _atom_site_moment_label
 _atom_site_moment_crystalaxis_x
 _atom_site_moment_crystalaxis_y
 _atom_site_moment_crystalaxis_z
  Sr0  0.00000000  -0.00000004  -0.02500001
  Fe1  0.00000006  0.00000096  0.62800034
  Fe2  0.00000006  0.00000094  0.61000033
  Fe3  0.00000006  0.00000095  0.62100034
  Fe4  0.00000006  0.00000095  0.62000034
  Sb5  0.00000000  -0.00000003  -0.02000001
  Sb6  0.00000000  -0.00000003  -0.02000001
  Sb7  0.00000000  -0.00000003  -0.01900001
  Sb8  0.00000000  -0.00000003  -0.01900001
  Sb9  0.00000000  -0.00000003  -0.01900001
  Sb10  0.00000000  -0.00000003  -0.01900001
  Sb11  0.00000000  -0.00000003  -0.02000001
  Sb12  0.00000000  -0.00000003  -0.02000001
  Sb13  0.00000000  -0.00000003  -0.01900001
  Sb14  0.00000000  -0.00000003  -0.01900001
  Sb15  0.00000000  -0.00000003  -0.02000001
  Sb16  0.00000000  -0.00000003  -0.02000001
