# generated using pymatgen
data_KCr5S8
_symmetry_space_group_name_H-M   'P 1'
_cell_length_a   3.48000927
_cell_length_b   17.08397445
_cell_length_c   9.05680264
_cell_angle_alpha   74.59372461
_cell_angle_beta   78.92190233
_cell_angle_gamma   84.14859222
_symmetry_Int_Tables_number   1
_chemical_formula_structural   KCr5S8
_chemical_formula_sum   'K2 Cr10 S16'
_cell_volume   508.68944017
_cell_formula_units_Z   2
loop_
 _symmetry_equiv_pos_site_id
 _symmetry_equiv_pos_as_xyz
  1  'x, y, z'
loop_
 _atom_site_type_symbol
 _atom_site_label
 _atom_site_symmetry_multiplicity
 _atom_site_fract_x
 _atom_site_fract_y
 _atom_site_fract_z
 _atom_site_occupancy
  K  K0  1  0.49999400  0.25000300  0.75000400  1
  K  K1  1  0.50000900  0.75000300  0.25000300  1
  Cr  Cr2  1  0.00442300  0.50064700  0.49049500  1
  Cr  Cr3  1  0.70670500  0.32985700  0.25673100  1
  Cr  Cr4  1  0.70701100  0.83202100  0.75442000  1
  Cr  Cr5  1  0.33936000  0.49199000  0.82937200  1
  Cr  Cr6  1  0.34431500  0.99179300  0.31965100  1
  Cr  Cr7  1  0.99556500  0.99935300  0.00952500  1
  Cr  Cr8  1  0.29329500  0.17013300  0.24327200  1
  Cr  Cr9  1  0.29297800  0.66798300  0.74558700  1
  Cr  Cr10  1  0.66064700  0.00801000  0.67061900  1
  Cr  Cr11  1  0.65569100  0.50821100  0.18034400  1
  S  S12  1  0.76153500  0.08006100  0.39683600  1
  S  S13  1  0.75781600  0.57996500  0.90414500  1
  S  S14  1  0.23846300  0.41992800  0.10318000  1
  S  S15  1  0.24218500  0.92003200  0.59585800  1
  S  S16  1  0.83299400  0.24342900  0.09059700  1
  S  S17  1  0.83187600  0.74164000  0.59420800  1
  S  S18  1  0.16700300  0.25658100  0.40940200  1
  S  S19  1  0.16812100  0.75836700  0.90578100  1
  S  S20  1  0.91447000  0.41668700  0.75462000  1
  S  S21  1  0.91354200  0.91093100  0.26224800  1
  S  S22  1  0.08553500  0.08331300  0.74537700  1
  S  S23  1  0.08645200  0.58906800  0.23775100  1
  S  S24  1  0.57499800  0.41951800  0.43048300  1
  S  S25  1  0.57496600  0.92411300  0.92608600  1
  S  S26  1  0.42501000  0.08048100  0.06949900  1
  S  S27  1  0.42503900  0.57588100  0.57390800  1
loop_
 _atom_site_moment_label
 _atom_site_moment_crystalaxis_x
 _atom_site_moment_crystalaxis_y
 _atom_site_moment_crystalaxis_z
  Cr2  1.03258329  0.00497472  -2.70116726
  Cr3  1.01268913  0.00487887  -2.64912551
  Cr4  1.01001107  0.00486597  -2.64211989
  Cr5  1.05515551  0.00508346  -2.76021464
  Cr6  1.00465495  0.00484017  -2.62810865
  Cr7  -1.03181813  -0.00497103  2.69916566
  Cr8  -1.01115881  -0.00487150  2.64512230
  Cr9  -1.00962849  -0.00486413  2.64111909
  Cr10  -1.05515551  -0.00508346  2.76021464
  Cr11  -1.00695043  -0.00485123  2.63411346
  S12  0.00344322  0.00001659  -0.00900723
  S13  0.00726902  0.00003502  -0.01901526
  S14  -0.00344322  -0.00001659  0.00900723
  S15  -0.00688644  -0.00003318  0.01801445
  S16  0.01185998  0.00005714  -0.03102489
  S17  0.01071224  0.00005161  -0.02802248
  S18  -0.01224256  -0.00005898  0.03202570
  S19  -0.01071224  -0.00005161  0.02802248
  S20  -0.03481478  -0.00016773  0.09107307
  S21  -0.01568578  -0.00007557  0.04103292
  S22  0.03443220  0.00016589  -0.09007227
  S23  0.01492062  0.00007188  -0.03903132
  S24  -0.00918192  -0.00004424  0.02401927
  S25  0.01912900  0.00009216  -0.05004015
  S26  0.00918192  0.00004424  -0.02401927
  S27  -0.01912900  -0.00009216  0.05004015
