# generated using pymatgen
data_Ca(FeAs)2
_symmetry_space_group_name_H-M   'P 1'
_cell_length_a   5.58496809
_cell_length_b   5.45423018
_cell_length_c   6.41336528
_cell_angle_alpha   89.99969040
_cell_angle_beta   115.80452306
_cell_angle_gamma   90.00044199
_symmetry_Int_Tables_number   1
_chemical_formula_structural   Ca(FeAs)2
_chemical_formula_sum   'Ca2 Fe4 As4'
_cell_volume   175.88137954
_cell_formula_units_Z   2
loop_
 _symmetry_equiv_pos_site_id
 _symmetry_equiv_pos_as_xyz
  1  'x, y, z'
loop_
 _atom_site_type_symbol
 _atom_site_label
 _atom_site_symmetry_multiplicity
 _atom_site_fract_x
 _atom_site_fract_y
 _atom_site_fract_z
 _atom_site_occupancy
  Ca  Ca0  1  0.00000000  0.00000500  0.99999900  1
  Ca  Ca1  1  0.49999900  0.49999400  0.00000000  1
  Fe  Fe2  1  0.00000100  0.25000100  0.50000100  1
  Fe  Fe3  1  0.00000100  0.75000000  0.49999900  1
  Fe  Fe4  1  0.50000000  0.75000000  0.50000100  1
  Fe  Fe5  1  0.50000000  0.25000000  0.50000100  1
  As  As6  1  0.36463900  0.00001800  0.72922500  1
  As  As7  1  0.86472400  0.49998200  0.72922400  1
  As  As8  1  0.63536100  0.00001800  0.27077500  1
  As  As9  1  0.13527500  0.49998200  0.27077500  1
loop_
 _atom_site_moment_label
 _atom_site_moment_crystalaxis_x
 _atom_site_moment_crystalaxis_y
 _atom_site_moment_crystalaxis_z
  Fe2  -0.02115068  0.00000467  -1.81310644
  Fe3  -0.02112723  0.00000467  -1.81109634
  Fe4  0.02112723  -0.00000467  1.81109634
  Fe5  0.02117413  -0.00000468  1.81511653
