# generated using pymatgen
data_MgMn3Te4
_symmetry_space_group_name_H-M   'P 1'
_cell_length_a   6.33786107
_cell_length_b   6.33839975
_cell_length_c   13.39637356
_cell_angle_alpha   76.41699186
_cell_angle_beta   76.41989987
_cell_angle_gamma   89.79851786
_symmetry_Int_Tables_number   1
_chemical_formula_structural   MgMn3Te4
_chemical_formula_sum   'Mg2 Mn6 Te8'
_cell_volume   507.72151711
_cell_formula_units_Z   2
loop_
 _symmetry_equiv_pos_site_id
 _symmetry_equiv_pos_as_xyz
  1  'x, y, z'
loop_
 _atom_site_type_symbol
 _atom_site_label
 _atom_site_symmetry_multiplicity
 _atom_site_fract_x
 _atom_site_fract_y
 _atom_site_fract_z
 _atom_site_occupancy
  Mg  Mg0  1  0.50002700  0.50001300  0.99997500  1
  Mg  Mg1  1  0.00002600  0.00001500  0.99997400  1
  Mn  Mn2  1  0.25019000  0.25019200  0.49989900  1
  Mn  Mn3  1  0.12827700  0.62831100  0.74401400  1
  Mn  Mn4  1  0.87213700  0.37209800  0.25582500  1
  Mn  Mn5  1  0.75019000  0.75019300  0.49989900  1
  Mn  Mn6  1  0.62827600  0.12831100  0.74401400  1
  Mn  Mn7  1  0.37213700  0.87209700  0.25582400  1
  Te  Te8  1  0.43884000  0.93890500  0.62222600  1
  Te  Te9  1  0.93884100  0.43890400  0.62222600  1
  Te  Te10  1  0.06097000  0.06091900  0.37789000  1
  Te  Te11  1  0.56097000  0.56091800  0.37789000  1
  Te  Te12  1  0.68254900  0.18251200  0.13438700  1
  Te  Te13  1  0.18254600  0.68251000  0.13438600  1
  Te  Te14  1  0.81701200  0.81705200  0.86578600  1
  Te  Te15  1  0.31701100  0.31705300  0.86578600  1
loop_
 _atom_site_moment_label
 _atom_site_moment_crystalaxis_x
 _atom_site_moment_crystalaxis_y
 _atom_site_moment_crystalaxis_z
  Mn2  1.02959613  1.02974892  -4.37648488
  Mn3  1.03159099  1.03174407  -4.38496438
  Mn4  1.03159099  1.03174407  -4.38496438
  Mn5  -1.02959613  -1.02974892  4.37648488
  Mn6  -1.03159099  -1.03174407  4.38496438
  Mn7  -1.03159099  -1.03174407  4.38496438
