# generated using pymatgen
data_Cs2Mn3S4
_symmetry_space_group_name_H-M   'P 1'
_cell_length_a   5.65223489
_cell_length_b   9.62257709
_cell_length_c   9.62257484
_cell_angle_alpha   74.38931201
_cell_angle_beta   72.92656899
_cell_angle_gamma   72.92625967
_symmetry_Int_Tables_number   1
_chemical_formula_structural   Cs2Mn3S4
_chemical_formula_sum   'Cs4 Mn6 S8'
_cell_volume   468.57115658
_cell_formula_units_Z   2
loop_
 _symmetry_equiv_pos_site_id
 _symmetry_equiv_pos_as_xyz
  1  'x, y, z'
loop_
 _atom_site_type_symbol
 _atom_site_label
 _atom_site_symmetry_multiplicity
 _atom_site_fract_x
 _atom_site_fract_y
 _atom_site_fract_z
 _atom_site_occupancy
  Cs  Cs0  1  0.49960000  0.12693900  0.37261800  1
  Cs  Cs1  1  0.50039900  0.62738200  0.87306200  1
  Cs  Cs2  1  0.99914300  0.87305600  0.62738100  1
  Cs  Cs3  1  0.00085700  0.37262000  0.12694500  1
  Mn  Mn4  1  0.00000000  0.75181100  0.24819000  1
  Mn  Mn5  1  0.00000200  0.24814900  0.75185000  1
  Mn  Mn6  1  0.50000000  0.50000300  0.49999700  1
  Mn  Mn7  1  0.50000000  0.74073200  0.25926900  1
  Mn  Mn8  1  0.50000000  0.25932100  0.74067800  1
  Mn  Mn9  1  0.49999900  0.00000000  0.00000000  1
  S  S10  1  0.16863900  0.95650000  0.22219400  1
  S  S11  1  0.16504300  0.46246400  0.72074500  1
  S  S12  1  0.65169200  0.72076700  0.46249000  1
  S  S13  1  0.65266800  0.22217600  0.95649100  1
  S  S14  1  0.83495600  0.27925600  0.53753700  1
  S  S15  1  0.83136000  0.77780700  0.04350100  1
  S  S16  1  0.34733500  0.04350800  0.77782200  1
  S  S17  1  0.34830700  0.53751000  0.27923200  1
loop_
 _atom_site_moment_label
 _atom_site_moment_crystalaxis_x
 _atom_site_moment_crystalaxis_y
 _atom_site_moment_crystalaxis_z
  Cs0  0.00002796  0.00062100  0.00062100
  Cs1  0.00002796  0.00062100  0.00062100
  Cs2  0.00002796  0.00062100  0.00062100
  Cs3  0.00002796  0.00062100  0.00062100
  Mn4  -0.10631696  -2.36103056  -2.36103120
  Mn5  -0.10628900  -2.36040957  -2.36041020
  Mn6  -0.11017592  -2.44672815  -2.44672881
  Mn7  0.10117169  2.24676712  2.24676772
  Mn8  0.10117169  2.24676712  2.24676772
  Mn9  0.11420265  2.53615172  2.53615240
  S10  0.00100668  0.02235589  0.02235590
  S11  -0.00013982  -0.00310498  -0.00310499
  S12  -0.00013982  -0.00310498  -0.00310499
  S13  0.00100668  0.02235589  0.02235590
  S14  -0.00013982  -0.00310498  -0.00310499
  S15  0.00100668  0.02235589  0.02235590
  S16  0.00100668  0.02235589  0.02235590
  S17  -0.00013982  -0.00310498  -0.00310499
