# generated using pymatgen
data_NaCr5Se8
_symmetry_space_group_name_H-M   'P 1'
_cell_length_a   3.66214894
_cell_length_b   17.60818058
_cell_length_c   9.59154458
_cell_angle_alpha   105.46919313
_cell_angle_beta   78.99077353
_cell_angle_gamma   89.97996302
_symmetry_Int_Tables_number   1
_chemical_formula_structural   NaCr5Se8
_chemical_formula_sum   'Na2 Cr10 Se16'
_cell_volume   584.26268418
_cell_formula_units_Z   2
loop_
 _symmetry_equiv_pos_site_id
 _symmetry_equiv_pos_as_xyz
  1  'x, y, z'
loop_
 _atom_site_type_symbol
 _atom_site_label
 _atom_site_symmetry_multiplicity
 _atom_site_fract_x
 _atom_site_fract_y
 _atom_site_fract_z
 _atom_site_occupancy
  Na  Na0  1  0.50076200  0.25011900  0.99846500  1
  Na  Na1  1  0.50038200  0.74990500  0.99930300  1
  Cr  Cr2  1  0.65239500  0.50910000  0.69515800  1
  Cr  Cr3  1  0.34909200  0.98714400  0.30230500  1
  Cr  Cr4  1  0.70543100  0.83664200  0.58988500  1
  Cr  Cr5  1  0.29403200  0.17351000  0.41204700  1
  Cr  Cr6  1  0.29385300  0.66318200  0.41140100  1
  Cr  Cr7  1  0.99401400  0.99971700  0.01112000  1
  Cr  Cr8  1  0.00595200  0.50034900  0.98875200  1
  Cr  Cr9  1  0.65768600  0.01065300  0.68423300  1
  Cr  Cr10  1  0.34257500  0.48969500  0.31526200  1
  Cr  Cr11  1  0.70599700  0.33057100  0.58835500  1
  Se  Se12  1  0.42390200  0.08334000  0.15135600  1
  Se  Se13  1  0.42764400  0.57725600  0.14542200  1
  Se  Se14  1  0.57349700  0.41541400  0.85384900  1
  Se  Se15  1  0.57210700  0.92363000  0.85510200  1
  Se  Se16  1  0.91897800  0.41017400  0.16282800  1
  Se  Se17  1  0.91901100  0.90169200  0.16288700  1
  Se  Se18  1  0.08083600  0.09001900  0.83735700  1
  Se  Se19  1  0.08271800  0.59592600  0.83401500  1
  Se  Se20  1  0.83462600  0.24802500  0.33081000  1
  Se  Se21  1  0.82892800  0.74267700  0.34084600  1
  Se  Se22  1  0.16543600  0.25456400  0.66931300  1
  Se  Se23  1  0.16993800  0.75718500  0.66090600  1
  Se  Se24  1  0.76381700  0.07856000  0.47196600  1
  Se  Se25  1  0.75811800  0.57562900  0.48274000  1
  Se  Se26  1  0.23700100  0.42152600  0.52637700  1
  Se  Se27  1  0.24127300  0.92379800  0.51793800  1
loop_
 _atom_site_moment_label
 _atom_site_moment_crystalaxis_x
 _atom_site_moment_crystalaxis_y
 _atom_site_moment_crystalaxis_z
  Na0  -0.00114798  0.00001008  0.00300244
  Na1  -0.00076532  0.00000672  0.00200162
  Cr2  1.05422408  -0.00925929  -2.75723816
  Cr3  1.07871422  -0.00947438  -2.82129016
  Cr4  1.09631651  -0.00962899  -2.86732753
  Cr5  1.05652003  -0.00927945  -2.76324304
  Cr6  1.09516853  -0.00961890  -2.86432509
  Cr7  -1.06570383  0.00936011  2.78726254
  Cr8  -1.06417320  0.00934667  2.78325929
  Cr9  -1.09019397  0.00957521  2.85131453
  Cr10  -1.09210726  0.00959202  2.85631859
  Cr11  -1.04504027  0.00917863  2.73321867
  Se12  -0.00382658  0.00003361  0.01000812
  Se13  0.02602078  -0.00022854  -0.06805524
  Se14  0.01186241  -0.00010419  -0.03102518
  Se15  0.02716875  -0.00023862  -0.07105768
  Se16  0.04362307  -0.00038314  -0.11409261
  Se17  -0.01645431  0.00014452  0.04303493
  Se18  0.04630167  -0.00040667  -0.12109830
  Se19  -0.01683697  0.00014788  0.04403575
  Se20  -0.01798495  0.00015796  0.04703818
  Se21  -0.04515370  0.00039659  0.11809586
  Se22  0.01568900  -0.00013780  -0.04103331
  Se23  -0.04438838  0.00038986  0.11609424
  Se24  -0.01836761  0.00016132  0.04803900
  Se25  -0.00382658  0.00003361  0.01000812
  Se26  0.00191329  -0.00001680  -0.00500406
  Se27  -0.00497456  0.00004369  0.01301056
