# generated using pymatgen
data_GaFe3
_symmetry_space_group_name_H-M   'P 1'
_cell_length_a   2.55224740
_cell_length_b   2.55224582
_cell_length_c   15.70163000
_cell_angle_alpha   90.00003892
_cell_angle_beta   90.00000366
_cell_angle_gamma   106.38486422
_symmetry_Int_Tables_number   1
_chemical_formula_structural   GaFe3
_chemical_formula_sum   'Ga2 Fe6'
_cell_volume   98.12609826
_cell_formula_units_Z   2
loop_
 _symmetry_equiv_pos_site_id
 _symmetry_equiv_pos_as_xyz
  1  'x, y, z'
loop_
 _atom_site_type_symbol
 _atom_site_label
 _atom_site_symmetry_multiplicity
 _atom_site_fract_x
 _atom_site_fract_y
 _atom_site_fract_z
 _atom_site_occupancy
  Ga  Ga0  1  0.00000000  0.00000000  0.99996400  1
  Ga  Ga1  1  0.00000000  0.00000000  0.50001400  1
  Fe  Fe2  1  0.00000000  0.00000000  0.75000600  1
  Fe  Fe3  1  0.50000000  0.50000000  0.87278200  1
  Fe  Fe4  1  0.50000000  0.50000000  0.62721800  1
  Fe  Fe5  1  0.00000000  0.00000000  0.25001100  1
  Fe  Fe6  1  0.50000000  0.50000000  0.37280900  1
  Fe  Fe7  1  0.50000000  0.50000000  0.12719700  1
loop_
 _atom_site_moment_label
 _atom_site_moment_crystalaxis_x
 _atom_site_moment_crystalaxis_y
 _atom_site_moment_crystalaxis_z
  Fe2  -0.00000038  -0.00000081  -2.44400000
  Fe3  -0.00000036  -0.00000075  -2.26900000
  Fe4  -0.00000036  -0.00000075  -2.26800000
  Fe5  0.00000038  0.00000081  2.44300000
  Fe6  0.00000036  0.00000076  2.27500000
  Fe7  0.00000036  0.00000075  2.27300000
