# generated using pymatgen
data_Rb2MnSb2
_symmetry_space_group_name_H-M   'P 1'
_cell_length_a   6.34493935
_cell_length_b   15.52176336
_cell_length_c   12.38916307
_cell_angle_alpha   102.66363067
_cell_angle_beta   134.96435876
_cell_angle_gamma   97.02481933
_symmetry_Int_Tables_number   1
_chemical_formula_structural   Rb2MnSb2
_chemical_formula_sum   'Rb8 Mn4 Sb8'
_cell_volume   771.40714683
_cell_formula_units_Z   4
loop_
 _symmetry_equiv_pos_site_id
 _symmetry_equiv_pos_as_xyz
  1  'x, y, z'
loop_
 _atom_site_type_symbol
 _atom_site_label
 _atom_site_symmetry_multiplicity
 _atom_site_fract_x
 _atom_site_fract_y
 _atom_site_fract_z
 _atom_site_occupancy
  Rb  Rb0  1  0.28179100  0.72438800  0.68437100  1
  Rb  Rb1  1  0.86216000  0.38569400  0.72828600  1
  Rb  Rb2  1  0.27786900  0.22405600  0.68152200  1
  Rb  Rb3  1  0.86153200  0.88583700  0.72763600  1
  Rb  Rb4  1  0.22189900  0.52588200  0.31841300  1
  Rb  Rb5  1  0.63809800  0.36434200  0.27199400  1
  Rb  Rb6  1  0.21837900  0.02563100  0.31567000  1
  Rb  Rb7  1  0.63803100  0.86412600  0.27194300  1
  Mn  Mn8  1  0.45303400  0.61770500  0.96091700  1
  Mn  Mn9  1  0.04706300  0.13234800  0.03914000  1
  Mn  Mn10  1  0.45134100  0.11817600  0.95934800  1
  Mn  Mn11  1  0.04864200  0.63183600  0.04064700  1
  Sb  Sb12  1  0.60935000  0.60611000  0.21837400  1
  Sb  Sb13  1  0.05667900  0.24337700  0.24329500  1
  Sb  Sb14  1  0.60636800  0.10584900  0.21601000  1
  Sb  Sb15  1  0.05827200  0.74319100  0.24461000  1
  Sb  Sb16  1  0.89366900  0.64412300  0.78396700  1
  Sb  Sb17  1  0.44325500  0.50662500  0.75674300  1
  Sb  Sb18  1  0.89066000  0.14392500  0.78167000  1
  Sb  Sb19  1  0.44190800  0.00678000  0.75544300  1
loop_
 _atom_site_moment_label
 _atom_site_moment_crystalaxis_x
 _atom_site_moment_crystalaxis_y
 _atom_site_moment_crystalaxis_z
  Rb0  -0.00150193  -0.00079347  -0.00294765
  Rb1  -0.00225290  -0.00119020  -0.00442148
  Rb2  0.00150193  0.00079347  0.00294765
  Rb3  0.00225290  0.00119020  0.00442148
  Rb4  0.00150193  0.00079347  0.00294765
  Rb5  -0.00225290  -0.00119020  -0.00442148
  Rb6  -0.00150193  -0.00079347  -0.00294765
  Rb7  0.00225290  0.00119020  0.00442148
  Mn8  -2.60134361  -1.37428698  -5.10533762
  Mn9  -2.60584940  -1.37666739  -5.11418059
  Mn10  2.60284554  1.37508045  5.10828528
  Mn11  2.60134361  1.37428698  5.10533762
  Sb12  -0.02628378  -0.01388569  -0.05158395
  Sb13  0.02628378  0.01388569  0.05158395
  Sb14  0.02703475  0.01428243  0.05305778
  Sb15  -0.02628378  -0.01388569  -0.05158395
  Sb16  0.02628378  0.01388569  0.05158395
  Sb17  0.02553282  0.01348896  0.05011013
  Sb18  -0.02628378  -0.01388569  -0.05158395
  Sb19  -0.02553282  -0.01348896  -0.05011013
