# generated using pymatgen
data_GaCo3
_symmetry_space_group_name_H-M   'P 1'
_cell_length_a   4.32353560
_cell_length_b   4.32338399
_cell_length_c   5.13144155
_cell_angle_alpha   90.00420452
_cell_angle_beta   90.00406215
_cell_angle_gamma   72.97020369
_symmetry_Int_Tables_number   1
_chemical_formula_structural   GaCo3
_chemical_formula_sum   'Ga2 Co6'
_cell_volume   91.71269072
_cell_formula_units_Z   2
loop_
 _symmetry_equiv_pos_site_id
 _symmetry_equiv_pos_as_xyz
  1  'x, y, z'
loop_
 _atom_site_type_symbol
 _atom_site_label
 _atom_site_symmetry_multiplicity
 _atom_site_fract_x
 _atom_site_fract_y
 _atom_site_fract_z
 _atom_site_occupancy
  Ga  Ga0  1  0.00000000  0.00000000  0.00000100  1
  Ga  Ga1  1  0.50000000  0.50000000  0.49999800  1
  Co  Co2  1  0.50000300  0.99999400  0.24926300  1
  Co  Co3  1  0.00000500  0.49999700  0.75073600  1
  Co  Co4  1  0.99999500  0.50000300  0.24926400  1
  Co  Co5  1  0.49999700  0.00000500  0.75073700  1
  Co  Co6  1  0.00000000  0.00000000  0.49999900  1
  Co  Co7  1  0.50000000  0.50000000  0.00000100  1
loop_
 _atom_site_moment_label
 _atom_site_moment_crystalaxis_x
 _atom_site_moment_crystalaxis_y
 _atom_site_moment_crystalaxis_z
  Ga0  0.03652615  0.03652660  -0.04334412
  Ga1  0.03652615  0.03652660  -0.04334412
  Co2  -0.58992241  -0.58992963  0.70003725
  Co3  -0.58992241  -0.58992963  0.70003725
  Co4  -0.59042277  -0.59042999  0.70063101
  Co5  -0.58992241  -0.58992963  0.70003725
  Co6  -0.75403993  -0.75404915  0.89478892
  Co7  -0.76454745  -0.76455680  0.90725778
