# generated using pymatgen
data_FeGe
_symmetry_space_group_name_H-M   'P 1'
_cell_length_a   4.66400802
_cell_length_b   4.66307400
_cell_length_c   4.66323001
_cell_angle_alpha   90.00076172
_cell_angle_beta   90.00914055
_cell_angle_gamma   90.00181828
_symmetry_Int_Tables_number   1
_chemical_formula_structural   FeGe
_chemical_formula_sum   'Fe4 Ge4'
_cell_volume   101.41879064
_cell_formula_units_Z   4
loop_
 _symmetry_equiv_pos_site_id
 _symmetry_equiv_pos_as_xyz
  1  'x, y, z'
loop_
 _atom_site_type_symbol
 _atom_site_label
 _atom_site_symmetry_multiplicity
 _atom_site_fract_x
 _atom_site_fract_y
 _atom_site_fract_z
 _atom_site_occupancy
  Fe  Fe0  1  0.13517500  0.13517900  0.13522500  1
  Fe  Fe1  1  0.36483300  0.86479400  0.63520700  1
  Fe  Fe2  1  0.63519100  0.36485500  0.86478500  1
  Fe  Fe3  1  0.86479500  0.63521600  0.36476900  1
  Ge  Ge4  1  0.84183800  0.84188200  0.84173300  1
  Ge  Ge5  1  0.65825100  0.15813200  0.34173400  1
  Ge  Ge6  1  0.34167600  0.65832900  0.15826600  1
  Ge  Ge7  1  0.15824000  0.34161500  0.65828100  1
loop_
 _atom_site_moment_label
 _atom_site_moment_crystalaxis_x
 _atom_site_moment_crystalaxis_y
 _atom_site_moment_crystalaxis_z
  Fe0  0.00009038  0.00000753  1.13300001
  Fe1  0.00009142  0.00000762  1.14600001
  Fe2  0.00009158  0.00000763  1.14800001
  Fe3  0.00009102  0.00000759  1.14100001
  Ge4  -0.00000614  -0.00000051  -0.07700000
  Ge5  -0.00000614  -0.00000051  -0.07700000
  Ge6  -0.00000614  -0.00000051  -0.07700000
  Ge7  -0.00000614  -0.00000051  -0.07700000
