# generated using pymatgen
data_NaMnP
_symmetry_space_group_name_H-M   'P 1'
_cell_length_a   3.99189907
_cell_length_b   3.99185707
_cell_length_c   6.86236100
_cell_angle_alpha   89.99944336
_cell_angle_beta   89.99944337
_cell_angle_gamma   89.97924543
_symmetry_Int_Tables_number   1
_chemical_formula_structural   NaMnP
_chemical_formula_sum   'Na2 Mn2 P2'
_cell_volume   109.35233632
_cell_formula_units_Z   2
loop_
 _symmetry_equiv_pos_site_id
 _symmetry_equiv_pos_as_xyz
  1  'x, y, z'
loop_
 _atom_site_type_symbol
 _atom_site_label
 _atom_site_symmetry_multiplicity
 _atom_site_fract_x
 _atom_site_fract_y
 _atom_site_fract_z
 _atom_site_occupancy
  Na  Na0  1  0.50000000  0.00000000  0.64359700  1
  Na  Na1  1  0.00000000  0.50000000  0.35640300  1
  Mn  Mn2  1  0.99999800  0.00000200  0.00000000  1
  Mn  Mn3  1  0.50000300  0.49999700  0.00000100  1
  P  P4  1  0.50000200  0.00000300  0.19448100  1
  P  P5  1  0.99999700  0.49999800  0.80551800  1
loop_
 _atom_site_moment_label
 _atom_site_moment_crystalaxis_x
 _atom_site_moment_crystalaxis_y
 _atom_site_moment_crystalaxis_z
  Mn2  0.00001603  0.00001603  -3.23500000
  Mn3  -0.00001603  -0.00001603  3.23500000
