# generated using pymatgen
data_SrMnBi2
_symmetry_space_group_name_H-M   'P 1'
_cell_length_a   4.60717216
_cell_length_b   11.89582961
_cell_length_c   4.60717152
_cell_angle_alpha   78.83433831
_cell_angle_beta   89.99999266
_cell_angle_gamma   101.16566720
_symmetry_Int_Tables_number   1
_chemical_formula_structural   SrMnBi2
_chemical_formula_sum   'Sr2 Mn2 Bi4'
_cell_volume   242.84821338
_cell_formula_units_Z   2
loop_
 _symmetry_equiv_pos_site_id
 _symmetry_equiv_pos_as_xyz
  1  'x, y, z'
loop_
 _atom_site_type_symbol
 _atom_site_label
 _atom_site_symmetry_multiplicity
 _atom_site_fract_x
 _atom_site_fract_y
 _atom_site_fract_z
 _atom_site_occupancy
  Sr  Sr0  1  0.11764600  0.23529200  0.88235400  1
  Sr  Sr1  1  0.88235400  0.76470800  0.11764600  1
  Mn  Mn2  1  0.25000000  0.50000000  0.25000000  1
  Mn  Mn3  1  0.75000000  0.50000000  0.75000000  1
  Bi  Bi4  1  0.50000000  0.00000000  0.00000000  1
  Bi  Bi5  1  0.00000000  0.00000000  0.50000000  1
  Bi  Bi6  1  0.32247200  0.64494500  0.67752800  1
  Bi  Bi7  1  0.67752700  0.35505500  0.32247200  1
loop_
 _atom_site_moment_label
 _atom_site_moment_crystalaxis_x
 _atom_site_moment_crystalaxis_y
 _atom_site_moment_crystalaxis_z
  Mn2  0.00000000  -3.84799987  1.49030341
  Mn3  0.00000000  3.84799987  -1.49030341
