# generated using pymatgen
data_MnTe2
_symmetry_space_group_name_H-M   'P 1'
_cell_length_a   6.65797211
_cell_length_b   6.58283709
_cell_length_c   6.66838303
_cell_angle_alpha   89.99993969
_cell_angle_beta   89.98955239
_cell_angle_gamma   90.01840810
_symmetry_Int_Tables_number   1
_chemical_formula_structural   MnTe2
_chemical_formula_sum   'Mn4 Te8'
_cell_volume   292.26417692
_cell_formula_units_Z   4
loop_
 _symmetry_equiv_pos_site_id
 _symmetry_equiv_pos_as_xyz
  1  'x, y, z'
loop_
 _atom_site_type_symbol
 _atom_site_label
 _atom_site_symmetry_multiplicity
 _atom_site_fract_x
 _atom_site_fract_y
 _atom_site_fract_z
 _atom_site_occupancy
  Mn  Mn0  1  0.49999900  0.00000200  0.50000200  1
  Mn  Mn1  1  0.50000100  0.49999900  0.00000300  1
  Mn  Mn2  1  0.99999800  0.99999800  0.99999900  1
  Mn  Mn3  1  0.00000300  0.50000100  0.49999800  1
  Te  Te4  1  0.36686000  0.36658000  0.36644700  1
  Te  Te5  1  0.63316100  0.86656300  0.13352000  1
  Te  Te6  1  0.13295600  0.63339300  0.86636900  1
  Te  Te7  1  0.86704600  0.13344800  0.63365000  1
  Te  Te8  1  0.63314000  0.63342000  0.63355200  1
  Te  Te9  1  0.36683900  0.13343500  0.86648000  1
  Te  Te10  1  0.86704300  0.36660700  0.13363100  1
  Te  Te11  1  0.13295500  0.86655300  0.36635000  1
loop_
 _atom_site_moment_label
 _atom_site_moment_crystalaxis_x
 _atom_site_moment_crystalaxis_y
 _atom_site_moment_crystalaxis_z
  Mn0  -0.00053040  -3.29700013  0.00000456
  Mn1  -0.00052975  -3.29300013  0.00000455
  Mn2  0.00052992  3.29400013  -0.00000455
  Mn3  0.00052992  3.29400013  -0.00000455
  Te4  0.00000804  0.05000000  -0.00000007
  Te5  0.00000804  0.05000000  -0.00000007
  Te6  -0.00000804  -0.05000000  0.00000007
  Te7  -0.00000788  -0.04900000  0.00000007
  Te8  0.00000804  0.05000000  -0.00000007
  Te9  0.00000804  0.05000000  -0.00000007
  Te10  -0.00000804  -0.05000000  0.00000007
  Te11  -0.00000788  -0.04900000  0.00000007
