# generated using pymatgen
data_RbCr5Se8
_symmetry_space_group_name_H-M   'P 1'
_cell_length_a   3.68309486
_cell_length_b   9.07844402
_cell_length_c   9.61910939
_cell_angle_alpha   104.67187785
_cell_angle_beta   78.95758958
_cell_angle_gamma   89.97940636
_symmetry_Int_Tables_number   1
_chemical_formula_structural   RbCr5Se8
_chemical_formula_sum   'Rb1 Cr5 Se8'
_cell_volume   304.97880147
_cell_formula_units_Z   1
loop_
 _symmetry_equiv_pos_site_id
 _symmetry_equiv_pos_as_xyz
  1  'x, y, z'
loop_
 _atom_site_type_symbol
 _atom_site_label
 _atom_site_symmetry_multiplicity
 _atom_site_fract_x
 _atom_site_fract_y
 _atom_site_fract_z
 _atom_site_occupancy
  Rb  Rb0  1  0.50000900  0.50000000  0.99998600  1
  Cr  Cr1  1  0.34270100  0.99048000  0.31493700  1
  Cr  Cr2  1  0.65732000  0.00950200  0.68503500  1
  Cr  Cr3  1  0.99998700  0.00001800  0.00001000  1
  Cr  Cr4  1  0.70512500  0.67275900  0.58968700  1
  Cr  Cr5  1  0.29484600  0.32724400  0.41038200  1
  Se  Se6  1  0.75910900  0.15459400  0.48197000  1
  Se  Se7  1  0.24089700  0.84538700  0.51801300  1
  Se  Se8  1  0.57229700  0.83816500  0.85540000  1
  Se  Se9  1  0.42770100  0.16186500  0.14460200  1
  Se  Se10  1  0.08705400  0.16922100  0.82487900  1
  Se  Se11  1  0.91294300  0.83077400  0.17507200  1
  Se  Se12  1  0.17240100  0.51491200  0.65518600  1
  Se  Se13  1  0.82761000  0.48508100  0.34484100  1
loop_
 _atom_site_moment_label
 _atom_site_moment_crystalaxis_x
 _atom_site_moment_crystalaxis_y
 _atom_site_moment_crystalaxis_z
  Rb0  -0.00152915  -0.00000128  0.00400030
  Cr1  1.06352334  0.00088931  -2.78220635
  Cr2  1.06352334  0.00088931  -2.78220635
  Cr3  -1.06619935  -0.00089155  2.78920687
  Cr4  -1.10060521  -0.00092032  2.87921354
  Cr5  -1.10098750  -0.00092064  2.88021362
  Se6  -0.01452692  -0.00001215  0.03800282
  Se7  -0.01452692  -0.00001215  0.03800282
  Se8  0.01108633  0.00000927  -0.02900215
  Se9  0.01108633  0.00000927  -0.02900215
  Se10  -0.01299777  -0.00001087  0.03400252
  Se11  -0.01299777  -0.00001087  0.03400252
  Se12  0.05122650  0.00004284  -0.13400994
  Se13  0.05122650  0.00004284  -0.13400994
