# generated using pymatgen
data_Ba(FeS2)2
_symmetry_space_group_name_H-M   'P 1'
_cell_length_a   5.18323666
_cell_length_b   6.07448914
_cell_length_c   6.07455782
_cell_angle_alpha   100.48840826
_cell_angle_beta   64.74484972
_cell_angle_gamma   115.25622293
_symmetry_Int_Tables_number   1
_chemical_formula_structural   Ba(FeS2)2
_chemical_formula_sum   'Ba1 Fe2 S4'
_cell_volume   156.44398618
_cell_formula_units_Z   1
loop_
 _symmetry_equiv_pos_site_id
 _symmetry_equiv_pos_as_xyz
  1  'x, y, z'
loop_
 _atom_site_type_symbol
 _atom_site_label
 _atom_site_symmetry_multiplicity
 _atom_site_fract_x
 _atom_site_fract_y
 _atom_site_fract_z
 _atom_site_occupancy
  Ba  Ba0  1  0.00000000  0.00000000  0.00000000  1
  Fe  Fe1  1  0.75000100  0.50000600  0.50000200  1
  Fe  Fe2  1  0.24999800  0.49999400  0.49999900  1
  S  S3  1  0.80376000  0.18825300  0.58074100  1
  S  S4  1  0.38448900  0.58075900  0.81175000  1
  S  S5  1  0.61549000  0.41924100  0.18825000  1
  S  S6  1  0.19626200  0.81174700  0.41925700  1
loop_
 _atom_site_moment_label
 _atom_site_moment_crystalaxis_x
 _atom_site_moment_crystalaxis_y
 _atom_site_moment_crystalaxis_z
  Fe1  0.00393902  -0.00001638  -2.58068109
  Fe2  -0.00394054  0.00001638  2.58168175
