# generated using pymatgen
data_Na5Co2S5
_symmetry_space_group_name_H-M   'P 1'
_cell_length_a   5.68064837
_cell_length_b   7.22031506
_cell_length_c   13.31622256
_cell_angle_alpha   89.97641570
_cell_angle_beta   89.99983970
_cell_angle_gamma   113.16870883
_symmetry_Int_Tables_number   1
_chemical_formula_structural   Na5Co2S5
_chemical_formula_sum   'Na10 Co4 S10'
_cell_volume   502.12992155
_cell_formula_units_Z   2
loop_
 _symmetry_equiv_pos_site_id
 _symmetry_equiv_pos_as_xyz
  1  'x, y, z'
loop_
 _atom_site_type_symbol
 _atom_site_label
 _atom_site_symmetry_multiplicity
 _atom_site_fract_x
 _atom_site_fract_y
 _atom_site_fract_z
 _atom_site_occupancy
  Na  Na0  1  0.93010100  0.00001300  0.99994800  1
  Na  Na1  1  0.43008800  0.99998900  0.50005100  1
  Na  Na2  1  0.15544800  0.60907900  0.99998400  1
  Na  Na3  1  0.65551500  0.60906400  0.50013400  1
  Na  Na4  1  0.54644600  0.39097300  0.99986600  1
  Na  Na5  1  0.04636200  0.39095400  0.50001500  1
  Na  Na6  1  0.35100900  0.99987700  0.19537400  1
  Na  Na7  1  0.85097900  0.99989200  0.69539600  1
  Na  Na8  1  0.85113400  0.00012200  0.30462400  1
  Na  Na9  1  0.35108200  0.00010700  0.80460300  1
  Co  Co10  1  0.98512500  0.49999300  0.75000500  1
  Co  Co11  1  0.98527900  0.49999300  0.25000500  1
  Co  Co12  1  0.48505700  0.49999200  0.25000000  1
  Co  Co13  1  0.48522500  0.49999000  0.75000700  1
  S  S14  1  0.44707400  0.00005200  0.00002600  1
  S  S15  1  0.94702900  0.99996900  0.49997500  1
  S  S16  1  0.14254300  0.31691700  0.15866200  1
  S  S17  1  0.64298600  0.31703400  0.65871100  1
  S  S18  1  0.32562300  0.68307600  0.34132100  1
  S  S19  1  0.82593600  0.68293700  0.84126000  1
  S  S20  1  0.82718200  0.68301900  0.15870500  1
  S  S21  1  0.32677500  0.68293900  0.65872800  1
  S  S22  1  0.64415900  0.31696600  0.34131100  1
  S  S23  1  0.14384000  0.31705500  0.84128600  1
loop_
 _atom_site_moment_label
 _atom_site_moment_crystalaxis_x
 _atom_site_moment_crystalaxis_y
 _atom_site_moment_crystalaxis_z
  Na2  0.00076847  -0.00000042  0.00184640
  Na3  -0.00076847  0.00000042  -0.00184640
  Na4  -0.00076847  0.00000042  -0.00184640
  Na5  0.00076847  -0.00000042  0.00184640
  Co10  -0.66165446  0.00036405  -1.58974913
  Co11  -0.65089585  0.00035813  -1.56389955
  Co12  0.65512244  -0.00036046  1.57405474
  Co13  0.65320126  -0.00035940  1.56943875
  S14  0.00038424  -0.00000021  0.00092320
  S16  0.00076847  -0.00000042  0.00184640
  S17  -0.00038424  0.00000021  -0.00092320
  S18  0.00076847  -0.00000042  0.00184640
  S19  -0.00038424  0.00000021  -0.00092320
  S20  0.00038424  -0.00000021  0.00092320
  S22  0.00038424  -0.00000021  0.00092320
