# generated using pymatgen
data_NaMnAs
_symmetry_space_group_name_H-M   'P 1'
_cell_length_a   4.11178400
_cell_length_b   4.11178700
_cell_length_c   7.07880300
_cell_angle_alpha   89.99997797
_cell_angle_beta   89.99994785
_cell_angle_gamma   89.99994426
_symmetry_Int_Tables_number   1
_chemical_formula_structural   NaMnAs
_chemical_formula_sum   'Na2 Mn2 As2'
_cell_volume   119.67976497
_cell_formula_units_Z   2
loop_
 _symmetry_equiv_pos_site_id
 _symmetry_equiv_pos_as_xyz
  1  'x, y, z'
loop_
 _atom_site_type_symbol
 _atom_site_label
 _atom_site_symmetry_multiplicity
 _atom_site_fract_x
 _atom_site_fract_y
 _atom_site_fract_z
 _atom_site_occupancy
  Na  Na0  1  0.50000000  0.00000000  0.64471300  1
  Na  Na1  1  0.00000000  0.50000000  0.35528700  1
  Mn  Mn2  1  0.00000100  0.00000000  0.00000000  1
  Mn  Mn3  1  0.49999900  0.50000100  0.00000000  1
  As  As4  1  0.50000000  0.00000000  0.20905200  1
  As  As5  1  0.00000000  0.50000000  0.79094800  1
loop_
 _atom_site_moment_label
 _atom_site_moment_crystalaxis_x
 _atom_site_moment_crystalaxis_y
 _atom_site_moment_crystalaxis_z
  Mn2  0.00000150  0.00000050  -3.53200000
  Mn3  -0.00000150  -0.00000050  3.53300000
