# generated using pymatgen
data_RbMnAs
_symmetry_space_group_name_H-M   'P 1'
_cell_length_a   4.32354400
_cell_length_b   4.32352900
_cell_length_c   8.90012000
_cell_angle_alpha   90.00001969
_cell_angle_beta   90.00024158
_cell_angle_gamma   89.99997350
_symmetry_Int_Tables_number   1
_chemical_formula_structural   RbMnAs
_chemical_formula_sum   'Rb2 Mn2 As2'
_cell_volume   166.36965717
_cell_formula_units_Z   2
loop_
 _symmetry_equiv_pos_site_id
 _symmetry_equiv_pos_as_xyz
  1  'x, y, z'
loop_
 _atom_site_type_symbol
 _atom_site_label
 _atom_site_symmetry_multiplicity
 _atom_site_fract_x
 _atom_site_fract_y
 _atom_site_fract_z
 _atom_site_occupancy
  Rb  Rb0  1  0.00000000  0.49999900  0.66581900  1
  Rb  Rb1  1  0.50000000  0.00000100  0.33418100  1
  Mn  Mn2  1  0.00000000  0.00000100  0.00000100  1
  Mn  Mn3  1  0.50000000  0.50000000  0.00000000  1
  As  As4  1  0.99999900  0.50000000  0.15582300  1
  As  As5  1  0.50000000  0.00000000  0.84417700  1
loop_
 _atom_site_moment_label
 _atom_site_moment_crystalaxis_x
 _atom_site_moment_crystalaxis_y
 _atom_site_moment_crystalaxis_z
  Mn2  -0.00000795  -0.00000042  -3.72300000
  Mn3  0.00000795  0.00000042  3.72400000
