# generated using pymatgen
data_Fe3Ge
_symmetry_space_group_name_H-M   'P 1'
_cell_length_a   4.03603041
_cell_length_b   4.03604931
_cell_length_c   6.99952365
_cell_angle_alpha   106.95219172
_cell_angle_beta   106.95263254
_cell_angle_gamma   59.87262564
_symmetry_Int_Tables_number   1
_chemical_formula_structural   Fe3Ge
_chemical_formula_sum   'Fe6 Ge2'
_cell_volume   92.86696392
_cell_formula_units_Z   2
loop_
 _symmetry_equiv_pos_site_id
 _symmetry_equiv_pos_as_xyz
  1  'x, y, z'
loop_
 _atom_site_type_symbol
 _atom_site_label
 _atom_site_symmetry_multiplicity
 _atom_site_fract_x
 _atom_site_fract_y
 _atom_site_fract_z
 _atom_site_occupancy
  Fe  Fe0  1  0.24996500  0.24996400  0.74990100  1
  Fe  Fe1  1  0.75003600  0.75003500  0.25010100  1
  Fe  Fe2  1  0.37505100  0.37505300  0.12527700  1
  Fe  Fe3  1  0.87509300  0.87509400  0.62561600  1
  Fe  Fe4  1  0.12495500  0.12495300  0.37476600  1
  Fe  Fe5  1  0.62490100  0.62490000  0.87434000  1
  Ge  Ge6  1  0.00011700  0.00011900  0.00022700  1
  Ge  Ge7  1  0.49988300  0.49988100  0.49977000  1
loop_
 _atom_site_moment_label
 _atom_site_moment_crystalaxis_x
 _atom_site_moment_crystalaxis_y
 _atom_site_moment_crystalaxis_z
  Fe0  1.29212315  1.29210362  2.23979587
  Fe1  1.29262397  1.29260444  2.24066401
  Fe2  0.69313893  0.69312845  1.20150290
  Fe3  0.70065127  0.70064068  1.21452497
  Fe4  0.69414058  0.69413009  1.20323918
  Fe5  0.69914881  0.69913824  1.21192056
  Ge6  -0.03706090  -0.03706034  -0.06424221
  Ge7  -0.03756172  -0.03756115  -0.06511035
