# generated using pymatgen
data_Ca(MnBi)2
_symmetry_space_group_name_H-M   'P 1'
_cell_length_a   4.56375200
_cell_length_b   4.56451963
_cell_length_c   15.39245401
_cell_angle_alpha   90.00268314
_cell_angle_beta   89.99906744
_cell_angle_gamma   60.00367928
_symmetry_Int_Tables_number   1
_chemical_formula_structural   Ca(MnBi)2
_chemical_formula_sum   'Ca2 Mn4 Bi4'
_cell_volume   277.69733419
_cell_formula_units_Z   2
loop_
 _symmetry_equiv_pos_site_id
 _symmetry_equiv_pos_as_xyz
  1  'x, y, z'
loop_
 _atom_site_type_symbol
 _atom_site_label
 _atom_site_symmetry_multiplicity
 _atom_site_fract_x
 _atom_site_fract_y
 _atom_site_fract_z
 _atom_site_occupancy
  Ca  Ca0  1  0.99999400  0.00001200  0.99998800  1
  Ca  Ca1  1  0.99999400  0.00000600  0.49999000  1
  Mn  Mn2  1  0.33339000  0.33324000  0.69621100  1
  Mn  Mn3  1  0.66663000  0.66673200  0.30383400  1
  Mn  Mn4  1  0.33338800  0.33325500  0.19615100  1
  Mn  Mn5  1  0.66660400  0.66674900  0.80381800  1
  Bi  Bi6  1  0.33335300  0.33330500  0.37394400  1
  Bi  Bi7  1  0.33333000  0.33332200  0.87395700  1
  Bi  Bi8  1  0.66666100  0.66669200  0.12605000  1
  Bi  Bi9  1  0.66665600  0.66668600  0.62605400  1
loop_
 _atom_site_moment_label
 _atom_site_moment_crystalaxis_x
 _atom_site_moment_crystalaxis_y
 _atom_site_moment_crystalaxis_z
  Ca0  -0.00000030  0.00000041  0.01200000
  Ca1  0.00000030  -0.00000041  -0.01200000
  Mn2  0.00009848  -0.00013611  -3.93600001
  Mn3  0.00009845  -0.00013608  -3.93500001
  Mn4  -0.00009848  0.00013611  3.93600001
  Mn5  -0.00009848  0.00013611  3.93600001
  Bi6  -0.00000008  0.00000010  0.00300000
  Bi7  0.00000010  -0.00000014  -0.00400000
  Bi8  0.00000010  -0.00000014  -0.00400000
  Bi9  -0.00000008  0.00000010  0.00300000
