# generated using pymatgen
data_LiFeAs
_symmetry_space_group_name_H-M   'P 1'
_cell_length_a   5.41998484
_cell_length_b   5.23982263
_cell_length_c   7.26906173
_cell_angle_alpha   68.84689986
_cell_angle_beta   68.09498802
_cell_angle_gamma   89.99356802
_symmetry_Int_Tables_number   1
_chemical_formula_structural   LiFeAs
_chemical_formula_sum   'Li4 Fe4 As4'
_cell_volume   176.45803570
_cell_formula_units_Z   4
loop_
 _symmetry_equiv_pos_site_id
 _symmetry_equiv_pos_as_xyz
  1  'x, y, z'
loop_
 _atom_site_type_symbol
 _atom_site_label
 _atom_site_symmetry_multiplicity
 _atom_site_fract_x
 _atom_site_fract_y
 _atom_site_fract_z
 _atom_site_occupancy
  Li  Li0  1  0.66665200  0.16649900  0.16665900  1
  Li  Li1  1  0.16662000  0.66656600  0.16665900  1
  Li  Li2  1  0.83334900  0.83343100  0.83334000  1
  Li  Li3  1  0.33338000  0.33349900  0.83334100  1
  Fe  Fe4  1  0.24992500  0.25002600  0.49999900  1
  Fe  Fe5  1  0.25007700  0.74997500  0.50000200  1
  Fe  Fe6  1  0.74992300  0.75002600  0.49999800  1
  Fe  Fe7  1  0.75007400  0.24997500  0.50000200  1
  As  As8  1  0.38341400  0.88346500  0.73311600  1
  As  As9  1  0.88336700  0.38354700  0.73311300  1
  As  As10  1  0.11657300  0.11645500  0.26688800  1
  As  As11  1  0.61664500  0.61653600  0.26688400  1
loop_
 _atom_site_moment_label
 _atom_site_moment_crystalaxis_x
 _atom_site_moment_crystalaxis_y
 _atom_site_moment_crystalaxis_z
  Fe4  0.68539914  0.66278000  -1.83792481
  Fe5  0.68060003  0.65813928  -1.82505583
  Fe6  -0.68409029  -0.66151435  1.83441509
  Fe7  -0.68409029  -0.66151435  1.83441509
  As8  0.00043628  0.00042188  -0.00116991
  As9  0.00043628  0.00042188  -0.00116991
  As10  0.00043628  0.00042188  -0.00116991
  As11  0.00043628  0.00042188  -0.00116991
