# generated using pymatgen
data_Fe3Se4
_symmetry_space_group_name_H-M   'P 1'
_cell_length_a   3.41900514
_cell_length_b   6.57745858
_cell_length_c   11.14010314
_cell_angle_alpha   96.77879285
_cell_angle_beta   98.69150144
_cell_angle_gamma   74.96297024
_symmetry_Int_Tables_number   1
_chemical_formula_structural   Fe3Se4
_chemical_formula_sum   'Fe6 Se8'
_cell_volume   238.34920833
_cell_formula_units_Z   2
loop_
 _symmetry_equiv_pos_site_id
 _symmetry_equiv_pos_as_xyz
  1  'x, y, z'
loop_
 _atom_site_type_symbol
 _atom_site_label
 _atom_site_symmetry_multiplicity
 _atom_site_fract_x
 _atom_site_fract_y
 _atom_site_fract_z
 _atom_site_occupancy
  Fe  Fe0  1  0.74166500  0.35934900  0.84408800  1
  Fe  Fe1  1  0.25811400  0.64019700  0.15547000  1
  Fe  Fe2  1  0.25851600  0.14078700  0.65599800  1
  Fe  Fe3  1  0.00007300  0.99966900  0.99999600  1
  Fe  Fe4  1  0.99991900  0.50031100  0.50000800  1
  Fe  Fe5  1  0.74171000  0.85967700  0.34449300  1
  Se  Se6  1  0.63826200  0.21146000  0.48910500  1
  Se  Se7  1  0.63815000  0.71071100  0.98886900  1
  Se  Se8  1  0.36176200  0.28851400  0.01092000  1
  Se  Se9  1  0.36181900  0.78934600  0.51108100  1
  Se  Se10  1  0.89240400  0.49289700  0.27801900  1
  Se  Se11  1  0.89287400  0.99253600  0.77805500  1
  Se  Se12  1  0.10747900  0.00693900  0.22197700  1
  Se  Se13  1  0.10725400  0.50760900  0.72192500  1
loop_
 _atom_site_moment_label
 _atom_site_moment_crystalaxis_x
 _atom_site_moment_crystalaxis_y
 _atom_site_moment_crystalaxis_z
  Fe0  -0.00231552  -1.17786167  -2.02357057
  Fe1  -0.00231239  -1.17626853  -2.02083355
  Fe2  -0.00230822  -1.17414434  -2.01718419
  Fe3  0.00241053  1.22618692  2.10659353
  Fe4  0.00241992  1.23096634  2.11480460
  Fe5  -0.00231866  -1.17945481  -2.02630760
  Se6  -0.00001044  -0.00531047  -0.00912340
  Se7  -0.00000835  -0.00424837  -0.00729872
  Se8  -0.00000835  -0.00424837  -0.00729872
  Se9  -0.00000940  -0.00477942  -0.00821106
  Se10  0.00001879  0.00955884  0.01642212
  Se11  0.00001879  0.00955884  0.01642212
  Se12  0.00001879  0.00955884  0.01642212
  Se13  0.00001879  0.00955884  0.01642212
