# generated using pymatgen
data_Mg(FeGe)6
_symmetry_space_group_name_H-M   'P 1'
_cell_length_a   5.03127059
_cell_length_b   8.05132100
_cell_length_c   5.03296427
_cell_angle_alpha   90.00029743
_cell_angle_beta   120.04881473
_cell_angle_gamma   89.99986304
_symmetry_Int_Tables_number   1
_chemical_formula_structural   Mg(FeGe)6
_chemical_formula_sum   'Mg1 Fe6 Ge6'
_cell_volume   176.47592241
_cell_formula_units_Z   1
loop_
 _symmetry_equiv_pos_site_id
 _symmetry_equiv_pos_as_xyz
  1  'x, y, z'
loop_
 _atom_site_type_symbol
 _atom_site_label
 _atom_site_symmetry_multiplicity
 _atom_site_fract_x
 _atom_site_fract_y
 _atom_site_fract_z
 _atom_site_occupancy
  Mg  Mg0  1  0.99999800  0.99995000  0.00000000  1
  Fe  Fe1  1  0.99999600  0.75063800  0.49999900  1
  Fe  Fe2  1  0.49999700  0.24940800  0.50000500  1
  Fe  Fe3  1  0.00000500  0.24935900  0.50000100  1
  Fe  Fe4  1  0.49999800  0.75061700  0.00000500  1
  Fe  Fe5  1  0.50000800  0.75059100  0.49999600  1
  Fe  Fe6  1  0.49999900  0.24937800  0.99999500  1
  Ge  Ge7  1  0.99999900  0.66034600  0.00000000  1
  Ge  Ge8  1  0.00000100  0.33969500  0.00000000  1
  Ge  Ge9  1  0.66665500  0.99998500  0.33337600  1
  Ge  Ge10  1  0.33334400  0.99998600  0.66662300  1
  Ge  Ge11  1  0.66671300  0.50002500  0.33341700  1
  Ge  Ge12  1  0.33328700  0.50002400  0.66658400  1
loop_
 _atom_site_moment_label
 _atom_site_moment_crystalaxis_x
 _atom_site_moment_crystalaxis_y
 _atom_site_moment_crystalaxis_z
  Fe1  0.00000023  1.60600000  0.00000430
  Fe2  -0.00000023  -1.60400000  -0.00000430
  Fe3  -0.00000023  -1.60800000  -0.00000431
  Fe4  0.00000023  1.60800000  0.00000431
  Fe5  0.00000023  1.60400000  0.00000430
  Fe6  -0.00000023  -1.60800000  -0.00000431
  Ge7  0.00000000  -0.06400000  -0.00000017
  Ge8  0.00000000  0.06400000  0.00000017
