# generated using pymatgen
data_Fe3Ge
_symmetry_space_group_name_H-M   'P 1'
_cell_length_a   5.13662302
_cell_length_b   5.13673202
_cell_length_c   4.21684902
_cell_angle_alpha   89.98949465
_cell_angle_beta   90.01065796
_cell_angle_gamma   119.99686370
_symmetry_Int_Tables_number   1
_chemical_formula_structural   Fe3Ge
_chemical_formula_sum   'Fe6 Ge2'
_cell_volume   96.36004669
_cell_formula_units_Z   2
loop_
 _symmetry_equiv_pos_site_id
 _symmetry_equiv_pos_as_xyz
  1  'x, y, z'
loop_
 _atom_site_type_symbol
 _atom_site_label
 _atom_site_symmetry_multiplicity
 _atom_site_fract_x
 _atom_site_fract_y
 _atom_site_fract_z
 _atom_site_occupancy
  Fe  Fe0  1  0.83792900  0.16209400  0.24997700  1
  Fe  Fe1  1  0.83792700  0.67583800  0.25001600  1
  Fe  Fe2  1  0.32416400  0.16208500  0.25002100  1
  Fe  Fe3  1  0.16200500  0.83798000  0.75001600  1
  Fe  Fe4  1  0.16200400  0.32399400  0.74998700  1
  Fe  Fe5  1  0.67602400  0.83799700  0.74998300  1
  Ge  Ge6  1  0.33329500  0.66667400  0.24999900  1
  Ge  Ge7  1  0.66665300  0.33333800  0.75000200  1
loop_
 _atom_site_moment_label
 _atom_site_moment_crystalaxis_x
 _atom_site_moment_crystalaxis_y
 _atom_site_moment_crystalaxis_z
  Fe0  0.00013699  -0.00013133  2.18000004
  Fe1  0.00013649  -0.00013085  2.17200004
  Fe2  0.00013655  -0.00013091  2.17300004
  Fe3  0.00013693  -0.00013127  2.17900004
  Fe4  0.00013649  -0.00013085  2.17200004
  Fe5  0.00013662  -0.00013097  2.17400004
  Ge6  -0.00000886  0.00000849  -0.14100000
  Ge7  -0.00000886  0.00000849  -0.14100000
