# generated using pymatgen
data_KFe2S3
_symmetry_space_group_name_H-M   'P 1'
_cell_length_a   5.26566901
_cell_length_b   7.25952607
_cell_length_c   7.25951946
_cell_angle_alpha   103.20134136
_cell_angle_beta   89.99587420
_cell_angle_gamma   90.00405425
_symmetry_Int_Tables_number   1
_chemical_formula_structural   KFe2S3
_chemical_formula_sum   'K2 Fe4 S6'
_cell_volume   270.17083626
_cell_formula_units_Z   2
loop_
 _symmetry_equiv_pos_site_id
 _symmetry_equiv_pos_as_xyz
  1  'x, y, z'
loop_
 _atom_site_type_symbol
 _atom_site_label
 _atom_site_symmetry_multiplicity
 _atom_site_fract_x
 _atom_site_fract_y
 _atom_site_fract_z
 _atom_site_occupancy
  K  K0  1  0.25000500  0.67386600  0.32613400  1
  K  K1  1  0.74999300  0.32613400  0.67386500  1
  Fe  Fe2  1  0.50000000  0.85460000  0.85460100  1
  Fe  Fe3  1  0.50000000  0.14539500  0.14539400  1
  Fe  Fe4  1  0.00000000  0.14540800  0.14540900  1
  Fe  Fe5  1  0.00000000  0.85459400  0.85459400  1
  S  S6  1  0.74999100  0.88874300  0.11126500  1
  S  S7  1  0.25000900  0.11126400  0.88874200  1
  S  S8  1  0.74999600  0.82734800  0.61221900  1
  S  S9  1  0.24999100  0.17265500  0.38777500  1
  S  S10  1  0.25000500  0.61221800  0.82734800  1
  S  S11  1  0.75000900  0.38777500  0.17265500  1
loop_
 _atom_site_moment_label
 _atom_site_moment_crystalaxis_x
 _atom_site_moment_crystalaxis_y
 _atom_site_moment_crystalaxis_z
  Fe2  0.00008491  0.01431045  -2.33869043
  Fe3  0.00008502  0.01432878  -2.34168619
  Fe4  -0.00008484  -0.01429823  2.33669326
  Fe5  -0.00008513  -0.01434711  2.34468195
  S8  0.00000004  0.00000611  -0.00099859
  S9  -0.00000004  -0.00000611  0.00099859
  S10  0.00000004  0.00000611  -0.00099859
  S11  -0.00000004  -0.00000611  0.00099859
