# generated using pymatgen
data_Sr(MnSb)2
_symmetry_space_group_name_H-M   'P 1'
_cell_length_a   4.53253801
_cell_length_b   4.53206601
_cell_length_c   15.56265400
_cell_angle_alpha   90.00020328
_cell_angle_beta   90.00130163
_cell_angle_gamma   60.00408824
_symmetry_Int_Tables_number   1
_chemical_formula_structural   Sr(MnSb)2
_chemical_formula_sum   'Sr2 Mn4 Sb4'
_cell_volume   276.86615202
_cell_formula_units_Z   2
loop_
 _symmetry_equiv_pos_site_id
 _symmetry_equiv_pos_as_xyz
  1  'x, y, z'
loop_
 _atom_site_type_symbol
 _atom_site_label
 _atom_site_symmetry_multiplicity
 _atom_site_fract_x
 _atom_site_fract_y
 _atom_site_fract_z
 _atom_site_occupancy
  Sr  Sr0  1  0.99999900  0.00000000  0.99999700  1
  Sr  Sr1  1  0.99999900  0.00000000  0.50000200  1
  Mn  Mn2  1  0.66673700  0.66664400  0.80554000  1
  Mn  Mn3  1  0.33326200  0.33335800  0.19446800  1
  Mn  Mn4  1  0.66674300  0.66662500  0.30549500  1
  Mn  Mn5  1  0.33325500  0.33337600  0.69450600  1
  Sb  Sb6  1  0.66669100  0.66665300  0.13503400  1
  Sb  Sb7  1  0.66668100  0.66666500  0.63505500  1
  Sb  Sb8  1  0.33331700  0.33333600  0.36493900  1
  Sb  Sb9  1  0.33331600  0.33334300  0.86496500  1
loop_
 _atom_site_moment_label
 _atom_site_moment_crystalaxis_x
 _atom_site_moment_crystalaxis_y
 _atom_site_moment_crystalaxis_z
  Sr0  -0.00000015  0.00000006  -0.01100000
  Sr1  0.00000015  -0.00000006  0.01100000
  Mn2  -0.00005362  0.00001988  -3.88400000
  Mn3  -0.00005360  0.00001988  -3.88300000
  Mn4  0.00005360  -0.00001988  3.88300000
  Mn5  0.00005360  -0.00001988  3.88300000
  Sb6  0.00000010  -0.00000004  0.00700000
  Sb7  -0.00000010  0.00000004  -0.00700000
  Sb8  -0.00000010  0.00000004  -0.00700000
  Sb9  0.00000010  -0.00000004  0.00700000
