# generated using pymatgen
data_LiMnAs
_symmetry_space_group_name_H-M   'P 1'
_cell_length_a   4.14628800
_cell_length_b   4.14628900
_cell_length_c   12.23775100
_cell_angle_alpha   90.00033905
_cell_angle_beta   90.00065960
_cell_angle_gamma   90.00011055
_symmetry_Int_Tables_number   1
_chemical_formula_structural   LiMnAs
_chemical_formula_sum   'Li4 Mn4 As4'
_cell_volume   210.38784574
_cell_formula_units_Z   4
loop_
 _symmetry_equiv_pos_site_id
 _symmetry_equiv_pos_as_xyz
  1  'x, y, z'
loop_
 _atom_site_type_symbol
 _atom_site_label
 _atom_site_symmetry_multiplicity
 _atom_site_fract_x
 _atom_site_fract_y
 _atom_site_fract_z
 _atom_site_occupancy
  Li  Li0  1  0.50000000  0.50000100  0.24996200  1
  Li  Li1  1  0.49999800  0.50000100  0.75004100  1
  Li  Li2  1  0.00000100  0.00000000  0.25003800  1
  Li  Li3  1  0.00000500  0.99999800  0.74996000  1
  Mn  Mn4  1  0.50000100  0.50000000  0.50000000  1
  Mn  Mn5  1  0.99999800  0.00000100  0.00000000  1
  Mn  Mn6  1  0.50000200  0.49999900  0.00000000  1
  Mn  Mn7  1  0.99999600  0.00000100  0.50000000  1
  As  As8  1  0.99999900  0.49999900  0.38250300  1
  As  As9  1  0.99999800  0.49999800  0.88250300  1
  As  As10  1  0.49999900  0.00000100  0.11749700  1
  As  As11  1  0.50000300  0.00000200  0.61749700  1
loop_
 _atom_site_moment_label
 _atom_site_moment_crystalaxis_x
 _atom_site_moment_crystalaxis_y
 _atom_site_moment_crystalaxis_z
  Mn4  -0.00002170  -0.00001100  -3.63800000
  Mn5  -0.00002170  -0.00001100  -3.63800000
  Mn6  0.00002170  0.00001100  3.63800000
  Mn7  0.00002170  0.00001100  3.63800000
