# generated using pymatgen
data_SrMnGe
_symmetry_space_group_name_H-M   'P 1'
_cell_length_a   4.34587200
_cell_length_b   4.34623900
_cell_length_c   15.11115100
_cell_angle_alpha   90.00021886
_cell_angle_beta   90.00057863
_cell_angle_gamma   89.99825979
_symmetry_Int_Tables_number   1
_chemical_formula_structural   SrMnGe
_chemical_formula_sum   'Sr4 Mn4 Ge4'
_cell_volume   285.42241770
_cell_formula_units_Z   4
loop_
 _symmetry_equiv_pos_site_id
 _symmetry_equiv_pos_as_xyz
  1  'x, y, z'
loop_
 _atom_site_type_symbol
 _atom_site_label
 _atom_site_symmetry_multiplicity
 _atom_site_fract_x
 _atom_site_fract_y
 _atom_site_fract_z
 _atom_site_occupancy
  Sr  Sr0  1  0.00001700  0.50001100  0.16287800  1
  Sr  Sr1  1  0.00002100  0.50000600  0.66254000  1
  Sr  Sr2  1  0.49998400  0.99999600  0.33744400  1
  Sr  Sr3  1  0.49999700  0.00000000  0.83716700  1
  Mn  Mn4  1  0.50000700  0.49998500  0.49998200  1
  Mn  Mn5  1  0.00001500  0.00000500  0.00003400  1
  Mn  Mn6  1  0.50000400  0.49998900  0.99998500  1
  Mn  Mn7  1  0.99998000  0.00000300  0.49999200  1
  Ge  Ge8  1  0.99996600  0.50000000  0.40399900  1
  Ge  Ge9  1  0.99998400  0.49999900  0.90359100  1
  Ge  Ge10  1  0.50000800  0.00000600  0.09642300  1
  Ge  Ge11  1  0.50001800  0.00000100  0.59596800  1
loop_
 _atom_site_moment_label
 _atom_site_moment_crystalaxis_x
 _atom_site_moment_crystalaxis_y
 _atom_site_moment_crystalaxis_z
  Mn4  -0.00000397  -0.00000373  -3.52600000
  Mn5  -0.00000397  -0.00000374  -3.53300000
  Mn6  0.00000397  0.00000374  3.53300000
  Mn7  0.00000397  0.00000373  3.52600000
