# generated using pymatgen
data_Mn2Ge
_symmetry_space_group_name_H-M   'P 1'
_cell_length_a   4.13029649
_cell_length_b   5.00977708
_cell_length_c   4.13009503
_cell_angle_alpha   89.98382241
_cell_angle_beta   119.99424768
_cell_angle_gamma   90.01364975
_symmetry_Int_Tables_number   1
_chemical_formula_structural   Mn2Ge
_chemical_formula_sum   'Mn4 Ge2'
_cell_volume   74.01426930
_cell_formula_units_Z   2
loop_
 _symmetry_equiv_pos_site_id
 _symmetry_equiv_pos_as_xyz
  1  'x, y, z'
loop_
 _atom_site_type_symbol
 _atom_site_label
 _atom_site_symmetry_multiplicity
 _atom_site_fract_x
 _atom_site_fract_y
 _atom_site_fract_z
 _atom_site_occupancy
  Mn  Mn0  1  0.66659400  0.80625000  0.33332100  1
  Mn  Mn1  1  0.33340500  0.19241500  0.66667700  1
  Mn  Mn2  1  0.00000100  0.50102500  0.00000100  1
  Mn  Mn3  1  0.00000100  0.00054000  0.00000100  1
  Ge  Ge4  1  0.66672800  0.29388100  0.33333200  1
  Ge  Ge5  1  0.33327100  0.70588900  0.66666800  1
loop_
 _atom_site_moment_label
 _atom_site_moment_crystalaxis_x
 _atom_site_moment_crystalaxis_y
 _atom_site_moment_crystalaxis_z
  Mn0  -0.00000402  -0.05800000  0.00000774
  Mn1  0.00000930  0.13400001  -0.00001787
  Mn2  -0.00017144  -2.47100009  0.00032959
  Mn3  0.00018629  2.68500010  -0.00035814
  Ge4  0.00000160  0.02300000  -0.00000307
  Ge5  0.00000167  0.02400000  -0.00000320
