# generated using pymatgen
data_V3Se4
_symmetry_space_group_name_H-M   'P 1'
_cell_length_a   3.44527447
_cell_length_b   6.86581040
_cell_length_c   11.40533270
_cell_angle_alpha   97.50125247
_cell_angle_beta   98.68655808
_cell_angle_gamma   75.45846269
_symmetry_Int_Tables_number   1
_chemical_formula_structural   V3Se4
_chemical_formula_sum   'V6 Se8'
_cell_volume   256.93824672
_cell_formula_units_Z   2
loop_
 _symmetry_equiv_pos_site_id
 _symmetry_equiv_pos_as_xyz
  1  'x, y, z'
loop_
 _atom_site_type_symbol
 _atom_site_label
 _atom_site_symmetry_multiplicity
 _atom_site_fract_x
 _atom_site_fract_y
 _atom_site_fract_z
 _atom_site_occupancy
  V  V0  1  0.00014900  0.49991100  0.50005700  1
  V  V1  1  0.25509000  0.14564500  0.65630600  1
  V  V2  1  0.74496900  0.85445900  0.34377200  1
  V  V3  1  0.00016200  0.99990100  0.00009300  1
  V  V4  1  0.25499500  0.64565500  0.15619700  1
  V  V5  1  0.74499700  0.35422200  0.84358100  1
  Se  Se6  1  0.63944100  0.21025300  0.48922500  1
  Se  Se7  1  0.63947600  0.71015400  0.98921800  1
  Se  Se8  1  0.36037300  0.28985200  0.01075100  1
  Se  Se9  1  0.36044500  0.78984700  0.51089100  1
  Se  Se10  1  0.10839100  0.00852300  0.22491800  1
  Se  Se11  1  0.10837100  0.50854200  0.72488200  1
  Se  Se12  1  0.89149700  0.49167000  0.27506300  1
  Se  Se13  1  0.89164500  0.99136800  0.77504600  1
loop_
 _atom_site_moment_label
 _atom_site_moment_crystalaxis_x
 _atom_site_moment_crystalaxis_y
 _atom_site_moment_crystalaxis_z
  V0  0.00053066  -0.96367181  -1.59794286
  V1  0.00033381  -0.60620722  -1.00520166
  V2  0.00033563  -0.60950183  -1.01066471
  V3  -0.00053066  0.96367181  1.59794286
  V4  -0.00033563  0.60950183  1.01066471
  V5  -0.00033381  0.60620722  1.00520166
  Se6  -0.00001542  0.02800414  0.04643595
  Se7  0.00001542  -0.02800414  -0.04643595
  Se8  0.00001542  -0.02800414  -0.04643595
  Se9  -0.00001542  0.02800414  0.04643595
  Se10  -0.00000121  0.00219640  0.00364204
  Se11  0.00000121  -0.00219640  -0.00364204
  Se12  0.00000121  -0.00219640  -0.00364204
  Se13  -0.00000121  0.00219640  0.00364204
