# generated using pymatgen
data_MnAs
_symmetry_space_group_name_H-M   'P 1'
_cell_length_a   3.42980200
_cell_length_b   5.55542109
_cell_length_c   6.02133210
_cell_angle_alpha   89.97894582
_cell_angle_beta   89.99996415
_cell_angle_gamma   89.99877341
_symmetry_Int_Tables_number   1
_chemical_formula_structural   MnAs
_chemical_formula_sum   'Mn4 As4'
_cell_volume   114.73042025
_cell_formula_units_Z   4
loop_
 _symmetry_equiv_pos_site_id
 _symmetry_equiv_pos_as_xyz
  1  'x, y, z'
loop_
 _atom_site_type_symbol
 _atom_site_label
 _atom_site_symmetry_multiplicity
 _atom_site_fract_x
 _atom_site_fract_y
 _atom_site_fract_z
 _atom_site_occupancy
  Mn  Mn0  1  0.75000500  0.99662300  0.18925300  1
  Mn  Mn1  1  0.24999300  0.00326800  0.81074800  1
  Mn  Mn2  1  0.74999000  0.49678500  0.31075900  1
  Mn  Mn3  1  0.25001200  0.50327500  0.68922000  1
  As  As4  1  0.74999700  0.80382300  0.58191300  1
  As  As5  1  0.24999500  0.19621300  0.41804800  1
  As  As6  1  0.75000400  0.30400400  0.91843600  1
  As  As7  1  0.25000300  0.69600900  0.08162300  1
loop_
 _atom_site_moment_label
 _atom_site_moment_crystalaxis_x
 _atom_site_moment_crystalaxis_y
 _atom_site_moment_crystalaxis_z
  Mn0  -0.00000067  -0.00037067  2.01800010
  Mn1  -0.00000067  -0.00037159  2.02300010
  Mn2  -0.00000066  -0.00036773  2.00200010
  Mn3  -0.00000066  -0.00036956  2.01200010
  As4  0.00000004  0.00002259  -0.12300001
  As5  0.00000004  0.00002259  -0.12300001
  As6  0.00000004  0.00002259  -0.12300001
  As7  0.00000004  0.00002259  -0.12300001
