# generated using pymatgen
data_CaMnGe
_symmetry_space_group_name_H-M   'P 1'
_cell_length_a   4.18976100
_cell_length_b   4.19003200
_cell_length_c   7.21213700
_cell_angle_alpha   90.00012268
_cell_angle_beta   89.99997486
_cell_angle_gamma   89.99969916
_symmetry_Int_Tables_number   1
_chemical_formula_structural   CaMnGe
_chemical_formula_sum   'Ca2 Mn2 Ge2'
_cell_volume   126.61074303
_cell_formula_units_Z   2
loop_
 _symmetry_equiv_pos_site_id
 _symmetry_equiv_pos_as_xyz
  1  'x, y, z'
loop_
 _atom_site_type_symbol
 _atom_site_label
 _atom_site_symmetry_multiplicity
 _atom_site_fract_x
 _atom_site_fract_y
 _atom_site_fract_z
 _atom_site_occupancy
  Ca  Ca0  1  0.49999800  0.99999900  0.32852800  1
  Ca  Ca1  1  0.00000400  0.50000100  0.67147300  1
  Mn  Mn2  1  0.00000500  0.99999200  0.00000100  1
  Mn  Mn3  1  0.49999300  0.50000800  0.00000000  1
  Ge  Ge4  1  0.50000400  0.00000500  0.79131500  1
  Ge  Ge5  1  0.99999600  0.49999500  0.20868400  1
loop_
 _atom_site_moment_label
 _atom_site_moment_crystalaxis_x
 _atom_site_moment_crystalaxis_y
 _atom_site_moment_crystalaxis_z
  Mn2  -0.00000094  -0.00000563  -3.38300000
  Mn3  0.00000094  0.00000563  3.38300000
