# generated using pymatgen
data_Sr(MnGe)2
_symmetry_space_group_name_H-M   'P 1'
_cell_length_a   4.25770088
_cell_length_b   4.25771783
_cell_length_c   6.19809957
_cell_angle_alpha   69.92287325
_cell_angle_beta   110.07738452
_cell_angle_gamma   89.97726088
_symmetry_Int_Tables_number   1
_chemical_formula_structural   Sr(MnGe)2
_chemical_formula_sum   'Sr1 Mn2 Ge2'
_cell_volume   98.22413665
_cell_formula_units_Z   1
loop_
 _symmetry_equiv_pos_site_id
 _symmetry_equiv_pos_as_xyz
  1  'x, y, z'
loop_
 _atom_site_type_symbol
 _atom_site_label
 _atom_site_symmetry_multiplicity
 _atom_site_fract_x
 _atom_site_fract_y
 _atom_site_fract_z
 _atom_site_occupancy
  Sr  Sr0  1  0.99999800  0.99999900  0.00000000  1
  Mn  Mn1  1  0.74991000  0.74991400  0.49999800  1
  Mn  Mn2  1  0.25009100  0.25008700  0.50000200  1
  Ge  Ge3  1  0.62776800  0.37223300  0.25530000  1
  Ge  Ge4  1  0.37223200  0.62776800  0.74470100  1
loop_
 _atom_site_moment_label
 _atom_site_moment_crystalaxis_x
 _atom_site_moment_crystalaxis_y
 _atom_site_moment_crystalaxis_z
  Mn1  -0.11151996  2.14101502  -3.27928950
  Mn2  0.11155475  -2.14168284  3.28031236
