# generated using pymatgen
data_CaMnSi
_symmetry_space_group_name_H-M   'P 1'
_cell_length_a   4.10042300
_cell_length_b   4.10046700
_cell_length_c   7.15075700
_cell_angle_alpha   89.99931806
_cell_angle_beta   90.00041997
_cell_angle_gamma   89.99930135
_symmetry_Int_Tables_number   1
_chemical_formula_structural   CaMnSi
_chemical_formula_sum   'Ca2 Mn2 Si2'
_cell_volume   120.23031968
_cell_formula_units_Z   2
loop_
 _symmetry_equiv_pos_site_id
 _symmetry_equiv_pos_as_xyz
  1  'x, y, z'
loop_
 _atom_site_type_symbol
 _atom_site_label
 _atom_site_symmetry_multiplicity
 _atom_site_fract_x
 _atom_site_fract_y
 _atom_site_fract_z
 _atom_site_occupancy
  Ca  Ca0  1  0.99999900  0.49999900  0.32923100  1
  Ca  Ca1  1  0.49999700  0.99999900  0.67076700  1
  Mn  Mn2  1  0.00000200  0.00000100  0.00000400  1
  Mn  Mn3  1  0.50000700  0.49999800  0.00000000  1
  Si  Si4  1  0.00000100  0.49999900  0.80434200  1
  Si  Si5  1  0.49999400  0.00000300  0.19565600  1
loop_
 _atom_site_moment_label
 _atom_site_moment_crystalaxis_x
 _atom_site_moment_crystalaxis_y
 _atom_site_moment_crystalaxis_z
  Mn2  -0.00001191  0.00001914  -3.04100000
  Mn3  0.00001191  -0.00001914  3.04100000
