# generated using pymatgen
data_Cr2Te3
_symmetry_space_group_name_H-M   'P 1'
_cell_length_a   6.88345300
_cell_length_b   6.88350695
_cell_length_c   12.28050200
_cell_angle_alpha   89.99964872
_cell_angle_beta   89.99971853
_cell_angle_gamma   120.00028936
_symmetry_Int_Tables_number   1
_chemical_formula_structural   Cr2Te3
_chemical_formula_sum   'Cr8 Te12'
_cell_volume   503.91999600
_cell_formula_units_Z   4
loop_
 _symmetry_equiv_pos_site_id
 _symmetry_equiv_pos_as_xyz
  1  'x, y, z'
loop_
 _atom_site_type_symbol
 _atom_site_label
 _atom_site_symmetry_multiplicity
 _atom_site_fract_x
 _atom_site_fract_y
 _atom_site_fract_z
 _atom_site_occupancy
  Cr  Cr0  1  0.33333500  0.66666700  0.25000600  1
  Cr  Cr1  1  0.66666500  0.33333500  0.74999600  1
  Cr  Cr2  1  0.00000100  0.00000400  0.99999900  1
  Cr  Cr3  1  0.99999700  0.99999900  0.50000000  1
  Cr  Cr4  1  0.33333200  0.66666500  0.99280400  1
  Cr  Cr5  1  0.33333500  0.66666900  0.50719700  1
  Cr  Cr6  1  0.66666500  0.33332900  0.00719900  1
  Cr  Cr7  1  0.66666900  0.33333600  0.49280000  1
  Te  Te8  1  0.32942100  0.99501800  0.37767200  1
  Te  Te9  1  0.00497900  0.33439600  0.37767100  1
  Te  Te10  1  0.66560000  0.67057700  0.37767200  1
  Te  Te11  1  0.00496700  0.67058600  0.12232700  1
  Te  Te12  1  0.66562000  0.99503300  0.12232500  1
  Te  Te13  1  0.32941200  0.33438200  0.12232900  1
  Te  Te14  1  0.67057800  0.00497700  0.62232900  1
  Te  Te15  1  0.99501400  0.66559500  0.62233000  1
  Te  Te16  1  0.33439600  0.32941900  0.62232800  1
  Te  Te17  1  0.99503600  0.32941500  0.87767200  1
  Te  Te18  1  0.33438800  0.00497500  0.87767300  1
  Te  Te19  1  0.67059100  0.66562200  0.87767100  1
loop_
 _atom_site_moment_label
 _atom_site_moment_crystalaxis_x
 _atom_site_moment_crystalaxis_y
 _atom_site_moment_crystalaxis_z
  Cr0  -0.00001688  -0.00001823  3.17900000
  Cr1  -0.00001686  -0.00001821  3.17400000
  Cr2  -0.00001634  -0.00001764  3.07600000
  Cr3  -0.00001633  -0.00001764  3.07500000
  Cr4  -0.00001651  -0.00001783  3.10900000
  Cr5  -0.00001651  -0.00001783  3.10800000
  Cr6  -0.00001651  -0.00001783  3.10800000
  Cr7  -0.00001651  -0.00001783  3.10800000
  Te8  0.00000092  0.00000100  -0.17400000
  Te9  0.00000092  0.00000100  -0.17400000
  Te10  0.00000092  0.00000100  -0.17400000
  Te11  0.00000092  0.00000099  -0.17300000
  Te12  0.00000092  0.00000099  -0.17300000
  Te13  0.00000092  0.00000099  -0.17300000
  Te14  0.00000092  0.00000099  -0.17300000
  Te15  0.00000092  0.00000100  -0.17400000
  Te16  0.00000092  0.00000099  -0.17300000
  Te17  0.00000092  0.00000099  -0.17300000
  Te18  0.00000092  0.00000099  -0.17300000
  Te19  0.00000092  0.00000099  -0.17300000
