# generated using pymatgen
data_Fe2Ge
_symmetry_space_group_name_H-M   'P 1'
_cell_length_a   4.03289212
_cell_length_b   4.98192013
_cell_length_c   4.03356726
_cell_angle_alpha   90.02414126
_cell_angle_beta   119.97083200
_cell_angle_gamma   89.97514140
_symmetry_Int_Tables_number   1
_chemical_formula_structural   Fe2Ge
_chemical_formula_sum   'Fe4 Ge2'
_cell_volume   70.20383219
_cell_formula_units_Z   2
loop_
 _symmetry_equiv_pos_site_id
 _symmetry_equiv_pos_as_xyz
  1  'x, y, z'
loop_
 _atom_site_type_symbol
 _atom_site_label
 _atom_site_symmetry_multiplicity
 _atom_site_fract_x
 _atom_site_fract_y
 _atom_site_fract_z
 _atom_site_occupancy
  Fe  Fe0  1  0.66708300  0.82070800  0.33364600  1
  Fe  Fe1  1  0.33291300  0.17930800  0.66635200  1
  Fe  Fe2  1  0.00000600  0.49999300  0.00000600  1
  Fe  Fe3  1  0.99999700  0.00001900  0.99999700  1
  Ge  Ge4  1  0.66632700  0.30897300  0.33297200  1
  Ge  Ge5  1  0.33367400  0.69099900  0.66702800  1
loop_
 _atom_site_moment_label
 _atom_site_moment_crystalaxis_x
 _atom_site_moment_crystalaxis_y
 _atom_site_moment_crystalaxis_z
  Fe0  -0.00003437  0.89700007  0.00018754
  Fe1  -0.00003440  0.89800007  0.00018775
  Fe3  -0.00010046  2.62200020  0.00054820
  Ge4  0.00000169  -0.04400000  -0.00000920
  Ge5  0.00000169  -0.04400000  -0.00000920
