# generated using pymatgen
data_CaMnSb2
_symmetry_space_group_name_H-M   'P 1'
_cell_length_a   4.33095402
_cell_length_b   4.33463702
_cell_length_c   10.88113400
_cell_angle_alpha   90.00018733
_cell_angle_beta   89.99950115
_cell_angle_gamma   90.01080380
_symmetry_Int_Tables_number   1
_chemical_formula_structural   CaMnSb2
_chemical_formula_sum   'Ca2 Mn2 Sb4'
_cell_volume   204.27276127
_cell_formula_units_Z   2
loop_
 _symmetry_equiv_pos_site_id
 _symmetry_equiv_pos_as_xyz
  1  'x, y, z'
loop_
 _atom_site_type_symbol
 _atom_site_label
 _atom_site_symmetry_multiplicity
 _atom_site_fract_x
 _atom_site_fract_y
 _atom_site_fract_z
 _atom_site_occupancy
  Ca  Ca0  1  0.25000300  0.74999900  0.23263300  1
  Ca  Ca1  1  0.75000400  0.25000000  0.76736600  1
  Mn  Mn2  1  0.75000100  0.74999700  0.49996900  1
  Mn  Mn3  1  0.24999500  0.25000200  0.50002800  1
  Sb  Sb4  1  0.24999600  0.24999700  0.00093300  1
  Sb  Sb5  1  0.75001000  0.75000300  0.99906600  1
  Sb  Sb6  1  0.24999900  0.75000100  0.65147100  1
  Sb  Sb7  1  0.74999200  0.25000100  0.34853400  1
loop_
 _atom_site_moment_label
 _atom_site_moment_crystalaxis_x
 _atom_site_moment_crystalaxis_y
 _atom_site_moment_crystalaxis_z
  Mn2  0.00001567  -0.00000600  -3.62700000
  Mn3  -0.00001567  0.00000600  3.62900000
  Sb4  0.00000004  -0.00000001  -0.00900000
  Sb5  -0.00000003  0.00000001  0.00800000
  Sb7  0.00000000  0.00000000  -0.00100000
