# generated using pymatgen
data_BaMnSb2
_symmetry_space_group_name_H-M   'P 1'
_cell_length_a   4.47293563
_cell_length_b   12.68549975
_cell_length_c   4.47293350
_cell_angle_alpha   79.83901095
_cell_angle_beta   89.99177614
_cell_angle_gamma   100.16115019
_symmetry_Int_Tables_number   1
_chemical_formula_structural   BaMnSb2
_chemical_formula_sum   'Ba2 Mn2 Sb4'
_cell_volume   245.77360938
_cell_formula_units_Z   2
loop_
 _symmetry_equiv_pos_site_id
 _symmetry_equiv_pos_as_xyz
  1  'x, y, z'
loop_
 _atom_site_type_symbol
 _atom_site_label
 _atom_site_symmetry_multiplicity
 _atom_site_fract_x
 _atom_site_fract_y
 _atom_site_fract_z
 _atom_site_occupancy
  Ba  Ba0  1  0.88552700  0.77081800  0.11447200  1
  Ba  Ba1  1  0.11447200  0.22918200  0.88552700  1
  Mn  Mn2  1  0.75002700  0.50000100  0.75002600  1
  Mn  Mn3  1  0.24997500  0.49999900  0.24997500  1
  Sb  Sb4  1  0.68571900  0.37121100  0.31428000  1
  Sb  Sb5  1  0.31428100  0.62878900  0.68571900  1
  Sb  Sb6  1  0.99999800  0.00000000  0.50000100  1
  Sb  Sb7  1  0.50000100  0.00000000  0.99999900  1
loop_
 _atom_site_moment_label
 _atom_site_moment_crystalaxis_x
 _atom_site_moment_crystalaxis_y
 _atom_site_moment_crystalaxis_z
  Mn2  -0.00208265  -3.77679141  1.33015226
  Mn3  0.00208265  3.77679141  -1.33015226
