# generated using pymatgen
data_Mn3Ge
_symmetry_space_group_name_H-M   'P 1'
_cell_length_a   3.69695201
_cell_length_b   3.69762501
_cell_length_c   7.41328900
_cell_angle_alpha   90.00027856
_cell_angle_beta   89.99938090
_cell_angle_gamma   89.99237562
_symmetry_Int_Tables_number   1
_chemical_formula_structural   Mn3Ge
_chemical_formula_sum   'Mn6 Ge2'
_cell_volume   101.33923124
_cell_formula_units_Z   2
loop_
 _symmetry_equiv_pos_site_id
 _symmetry_equiv_pos_as_xyz
  1  'x, y, z'
loop_
 _atom_site_type_symbol
 _atom_site_label
 _atom_site_symmetry_multiplicity
 _atom_site_fract_x
 _atom_site_fract_y
 _atom_site_fract_z
 _atom_site_occupancy
  Mn  Mn0  1  0.50000000  0.50000000  0.49998000  1
  Mn  Mn1  1  0.50000000  0.99999700  0.25025600  1
  Mn  Mn2  1  0.50000000  0.00000300  0.74975400  1
  Mn  Mn3  1  0.00000100  0.50000100  0.24971900  1
  Mn  Mn4  1  0.99999800  0.49999900  0.75027800  1
  Mn  Mn5  1  0.50000100  0.50000000  0.00001100  1
  Ge  Ge6  1  0.00000000  0.00000100  0.00000800  1
  Ge  Ge7  1  0.00000000  0.00000000  0.49999400  1
loop_
 _atom_site_moment_label
 _atom_site_moment_crystalaxis_x
 _atom_site_moment_crystalaxis_y
 _atom_site_moment_crystalaxis_z
  Mn0  0.00001162  -0.00000523  -2.15400000
  Mn1  0.00001397  -0.00000629  -2.58900000
  Mn2  0.00001398  -0.00000629  -2.59000000
  Mn3  -0.00001398  0.00000629  2.59000000
  Mn4  -0.00001398  0.00000629  2.59000000
  Mn5  -0.00001161  0.00000523  2.15200000
  Ge6  0.00000016  -0.00000007  -0.03000000
  Ge7  -0.00000016  0.00000007  0.03000000
