# generated using pymatgen
data_SrMnSn
_symmetry_space_group_name_H-M   'P 1'
_cell_length_a   4.65957100
_cell_length_b   4.65954400
_cell_length_c   15.26196300
_cell_angle_alpha   89.99995664
_cell_angle_beta   89.99994913
_cell_angle_gamma   89.99997541
_symmetry_Int_Tables_number   1
_chemical_formula_structural   SrMnSn
_chemical_formula_sum   'Sr4 Mn4 Sn4'
_cell_volume   331.35974485
_cell_formula_units_Z   4
loop_
 _symmetry_equiv_pos_site_id
 _symmetry_equiv_pos_as_xyz
  1  'x, y, z'
loop_
 _atom_site_type_symbol
 _atom_site_label
 _atom_site_symmetry_multiplicity
 _atom_site_fract_x
 _atom_site_fract_y
 _atom_site_fract_z
 _atom_site_occupancy
  Sr  Sr0  1  0.00000000  0.50000000  0.16126700  1
  Sr  Sr1  1  0.00000000  0.49999800  0.66126000  1
  Sr  Sr2  1  0.50000200  0.00000300  0.33874100  1
  Sr  Sr3  1  0.50000000  0.00000000  0.83873400  1
  Mn  Mn4  1  0.50000000  0.50000000  0.50000000  1
  Mn  Mn5  1  0.99999900  0.99999800  0.00000100  1
  Mn  Mn6  1  0.49999700  0.50000200  0.99999900  1
  Mn  Mn7  1  0.00000200  0.00000000  0.50000000  1
  Sn  Sn8  1  0.00000000  0.50000100  0.39706200  1
  Sn  Sn9  1  0.99999900  0.49999900  0.89706000  1
  Sn  Sn10  1  0.50000000  0.00000100  0.10294000  1
  Sn  Sn11  1  0.50000100  0.99999900  0.60293700  1
loop_
 _atom_site_moment_label
 _atom_site_moment_crystalaxis_x
 _atom_site_moment_crystalaxis_y
 _atom_site_moment_crystalaxis_z
  Mn4  0.00000172  0.00000123  -3.74100000
  Mn5  0.00000172  0.00000123  -3.74200000
  Mn6  -0.00000172  -0.00000123  3.74200000
  Mn7  -0.00000172  -0.00000123  3.74400000
