# generated using pymatgen
data_Cr2Se3
_symmetry_space_group_name_H-M   'P 1'
_cell_length_a   6.28359220
_cell_length_b   6.86159000
_cell_length_c   6.28359275
_cell_angle_alpha   62.74949780
_cell_angle_beta   119.99999965
_cell_angle_gamma   117.25049545
_symmetry_Int_Tables_number   1
_chemical_formula_structural   Cr2Se3
_chemical_formula_sum   'Cr4 Se6'
_cell_volume   199.14807387
_cell_formula_units_Z   2
loop_
 _symmetry_equiv_pos_site_id
 _symmetry_equiv_pos_as_xyz
  1  'x, y, z'
loop_
 _atom_site_type_symbol
 _atom_site_label
 _atom_site_symmetry_multiplicity
 _atom_site_fract_x
 _atom_site_fract_y
 _atom_site_fract_z
 _atom_site_occupancy
  Cr  Cr0  1  0.66880400  0.00641200  0.33119600  1
  Cr  Cr1  1  0.33119600  0.99358800  0.66880400  1
  Cr  Cr2  1  0.00000000  0.00000000  0.00000000  1
  Cr  Cr3  1  0.50000000  0.50000000  0.50000000  1
  Se  Se4  1  0.74614000  0.24600300  0.91322800  1
  Se  Se5  1  0.41309100  0.24600300  0.25386000  1
  Se  Se6  1  0.08677200  0.24600300  0.58690900  1
  Se  Se7  1  0.25386000  0.75399700  0.08677200  1
  Se  Se8  1  0.58690900  0.75399700  0.74614000  1
  Se  Se9  1  0.91322800  0.75399700  0.41309100  1
loop_
 _atom_site_moment_label
 _atom_site_moment_crystalaxis_x
 _atom_site_moment_crystalaxis_y
 _atom_site_moment_crystalaxis_z
  Cr0  -0.00000587  -2.74602174  0.00004162
  Cr1  -0.00000587  -2.74602174  0.00004162
  Cr2  0.00000594  2.78202203  -0.00004217
  Cr3  0.00000589  2.75502182  -0.00004176
  Se4  -0.00000002  -0.00900007  0.00000014
  Se5  -0.00000002  -0.00900007  0.00000014
  Se6  -0.00000002  -0.00900007  0.00000014
  Se7  -0.00000002  -0.00900007  0.00000014
  Se8  -0.00000002  -0.00900007  0.00000014
  Se9  -0.00000002  -0.00900007  0.00000014
