# generated using pymatgen
data_Cs(FeAs)2
_symmetry_space_group_name_H-M   'P 1'
_cell_length_a   3.96772680
_cell_length_b   8.00280343
_cell_length_c   3.96755294
_cell_angle_alpha   75.63434119
_cell_angle_beta   89.98224603
_cell_angle_gamma   75.63347759
_symmetry_Int_Tables_number   1
_chemical_formula_structural   Cs(FeAs)2
_chemical_formula_sum   'Cs1 Fe2 As2'
_cell_volume   117.97370855
_cell_formula_units_Z   1
loop_
 _symmetry_equiv_pos_site_id
 _symmetry_equiv_pos_as_xyz
  1  'x, y, z'
loop_
 _atom_site_type_symbol
 _atom_site_label
 _atom_site_symmetry_multiplicity
 _atom_site_fract_x
 _atom_site_fract_y
 _atom_site_fract_z
 _atom_site_occupancy
  Cs  Cs0  1  0.00000000  0.00000000  0.00000000  1
  Fe  Fe1  1  0.74996000  0.49998000  0.25006000  1
  Fe  Fe2  1  0.25004000  0.50002000  0.74994100  1
  As  As3  1  0.33635700  0.32720400  0.33635300  1
  As  As4  1  0.66364300  0.67279700  0.66364500  1
loop_
 _atom_site_moment_label
 _atom_site_moment_crystalaxis_x
 _atom_site_moment_crystalaxis_y
 _atom_site_moment_crystalaxis_z
  Cs0  0.00048241  -0.00100863  0.00048240
  Fe1  1.01788570  -2.12820349  1.01785854
  Fe2  -0.98749385  2.06465997  -0.98746750
  As3  0.00096482  -0.00201725  0.00096479
  As4  0.00096482  -0.00201725  0.00096479
