# generated using pymatgen
data_FeSb2
_symmetry_space_group_name_H-M   'P 1'
_cell_length_a   5.83796400
_cell_length_b   6.36710282
_cell_length_c   7.23658396
_cell_angle_alpha   64.40583966
_cell_angle_beta   89.99755121
_cell_angle_gamma   90.00004283
_symmetry_Int_Tables_number   1
_chemical_formula_structural   FeSb2
_chemical_formula_sum   'Fe4 Sb8'
_cell_volume   242.59619272
_cell_formula_units_Z   4
loop_
 _symmetry_equiv_pos_site_id
 _symmetry_equiv_pos_as_xyz
  1  'x, y, z'
loop_
 _atom_site_type_symbol
 _atom_site_label
 _atom_site_symmetry_multiplicity
 _atom_site_fract_x
 _atom_site_fract_y
 _atom_site_fract_z
 _atom_site_occupancy
  Fe  Fe0  1  0.00000100  0.50000200  0.99999900  1
  Fe  Fe1  1  0.49999900  0.00000000  0.50000000  1
  Fe  Fe2  1  0.00000000  0.99999900  0.00000000  1
  Fe  Fe3  1  0.50000000  0.50000000  0.50000100  1
  Sb  Sb4  1  0.19063700  0.32286600  0.35351700  1
  Sb  Sb5  1  0.19064500  0.82286200  0.35349800  1
  Sb  Sb6  1  0.80935500  0.17713700  0.64650200  1
  Sb  Sb7  1  0.80936200  0.67713400  0.64648300  1
  Sb  Sb8  1  0.30935300  0.82286200  0.85353200  1
  Sb  Sb9  1  0.30935000  0.32285200  0.85352700  1
  Sb  Sb10  1  0.69064700  0.17713900  0.14646800  1
  Sb  Sb11  1  0.69065000  0.67714800  0.14647300  1
loop_
 _atom_site_moment_label
 _atom_site_moment_crystalaxis_x
 _atom_site_moment_crystalaxis_y
 _atom_site_moment_crystalaxis_z
  Fe0  0.00001547  0.30796848  -0.70629801
  Fe1  0.00001549  0.30845194  -0.70740679
  Fe2  -0.00001547  -0.30796848  0.70629801
  Fe3  -0.00001549  -0.30845194  0.70740679
  Sb4  -0.00000024  -0.00483467  0.01108788
  Sb5  0.00000024  0.00483467  -0.01108788
  Sb6  0.00000024  0.00483467  -0.01108788
  Sb7  -0.00000024  -0.00483467  0.01108788
  Sb8  -0.00000024  -0.00483467  0.01108788
  Sb9  0.00000024  0.00483467  -0.01108788
  Sb10  -0.00000024  -0.00483467  0.01108788
  Sb11  0.00000024  0.00483467  -0.01108788
