# generated using pymatgen
data_KMnP
_symmetry_space_group_name_H-M   'P 1'
_cell_length_a   3.95341008
_cell_length_b   3.95004708
_cell_length_c   21.08941500
_cell_angle_alpha   90.00009243
_cell_angle_beta   90.00009782
_cell_angle_gamma   89.97749769
_symmetry_Int_Tables_number   1
_chemical_formula_structural   KMnP
_chemical_formula_sum   'K4 Mn4 P4'
_cell_volume   329.33556734
_cell_formula_units_Z   4
loop_
 _symmetry_equiv_pos_site_id
 _symmetry_equiv_pos_as_xyz
  1  'x, y, z'
loop_
 _atom_site_type_symbol
 _atom_site_label
 _atom_site_symmetry_multiplicity
 _atom_site_fract_x
 _atom_site_fract_y
 _atom_site_fract_z
 _atom_site_occupancy
  K  K0  1  0.99999900  0.50000000  0.14354600  1
  K  K1  1  0.00000000  0.49999900  0.64387300  1
  K  K2  1  0.49999700  0.99999800  0.35616700  1
  K  K3  1  0.50000100  0.00000100  0.85649200  1
  Mn  Mn4  1  0.50000100  0.50000000  0.49991600  1
  Mn  Mn5  1  0.00000000  0.00000100  0.00004900  1
  Mn  Mn6  1  0.50000000  0.50000000  0.99992300  1
  Mn  Mn7  1  0.00000000  0.00000000  0.50007500  1
  P  P8  1  0.00000100  0.50000000  0.43896300  1
  P  P9  1  0.00000100  0.50000100  0.93895700  1
  P  P10  1  0.50000000  0.00000000  0.06101400  1
  P  P11  1  0.50000000  0.99999900  0.56102600  1
loop_
 _atom_site_moment_label
 _atom_site_moment_crystalaxis_x
 _atom_site_moment_crystalaxis_y
 _atom_site_moment_crystalaxis_z
  Mn4  -0.00000282  -0.00000253  -2.97000000
  Mn5  -0.00000285  -0.00000256  -3.00400000
  Mn6  0.00000282  0.00000254  2.97100000
  Mn7  0.00000285  0.00000256  3.00100000
  P9  0.00000000  0.00000000  -0.00100000
  P10  0.00000000  0.00000000  -0.00100000
  P11  0.00000000  0.00000000  0.00100000
