# generated using pymatgen
data_CoSe2
_symmetry_space_group_name_H-M   'P 1'
_cell_length_a   5.84411100
_cell_length_b   5.84411200
_cell_length_c   5.84411200
_cell_angle_alpha   89.99998039
_cell_angle_beta   89.99974510
_cell_angle_gamma   89.99962745
_symmetry_Int_Tables_number   1
_chemical_formula_structural   CoSe2
_chemical_formula_sum   'Co4 Se8'
_cell_volume   199.59769283
_cell_formula_units_Z   4
loop_
 _symmetry_equiv_pos_site_id
 _symmetry_equiv_pos_as_xyz
  1  'x, y, z'
loop_
 _atom_site_type_symbol
 _atom_site_label
 _atom_site_symmetry_multiplicity
 _atom_site_fract_x
 _atom_site_fract_y
 _atom_site_fract_z
 _atom_site_occupancy
  Co  Co0  1  0.00000000  0.00000000  0.00000000  1
  Co  Co1  1  0.50000000  0.00000000  0.50000000  1
  Co  Co2  1  0.50000000  0.50000000  0.00000000  1
  Co  Co3  1  0.00000000  0.50000000  0.50000000  1
  Se  Se4  1  0.37320900  0.37321400  0.37320900  1
  Se  Se5  1  0.12679300  0.62679200  0.87320800  1
  Se  Se6  1  0.87321400  0.12679100  0.62679100  1
  Se  Se7  1  0.62679000  0.87320800  0.12678600  1
  Se  Se8  1  0.62679100  0.62678600  0.62679100  1
  Se  Se9  1  0.87320700  0.37320800  0.12679200  1
  Se  Se10  1  0.12678600  0.87320900  0.37320900  1
  Se  Se11  1  0.37321000  0.12679200  0.87321400  1
loop_
 _atom_site_moment_label
 _atom_site_moment_crystalaxis_x
 _atom_site_moment_crystalaxis_y
 _atom_site_moment_crystalaxis_z
  Co0  -0.00000151  -0.00000012  0.67700000
  Co1  -0.00000158  -0.00000012  0.70900000
  Co2  -0.00000151  -0.00000012  0.67800000
  Co3  -0.00000151  -0.00000012  0.67900000
  Se4  -0.00000003  0.00000000  0.01200000
  Se5  -0.00000002  0.00000000  0.01000000
  Se6  -0.00000003  0.00000000  0.01200000
  Se7  -0.00000003  0.00000000  0.01200000
  Se8  -0.00000003  0.00000000  0.01200000
  Se9  -0.00000002  0.00000000  0.01000000
  Se10  -0.00000003  0.00000000  0.01200000
  Se11  -0.00000003  0.00000000  0.01200000
