# generated using pymatgen
data_MnSe
_symmetry_space_group_name_H-M   'P 1'
_cell_length_a   5.79402260
_cell_length_b   5.79403811
_cell_length_c   7.10003476
_cell_angle_alpha   114.07529995
_cell_angle_beta   114.07609682
_cell_angle_gamma   90.00844276
_symmetry_Int_Tables_number   1
_chemical_formula_structural   MnSe
_chemical_formula_sum   'Mn4 Se4'
_cell_volume   194.68053737
_cell_formula_units_Z   4
loop_
 _symmetry_equiv_pos_site_id
 _symmetry_equiv_pos_as_xyz
  1  'x, y, z'
loop_
 _atom_site_type_symbol
 _atom_site_label
 _atom_site_symmetry_multiplicity
 _atom_site_fract_x
 _atom_site_fract_y
 _atom_site_fract_z
 _atom_site_occupancy
  Mn  Mn0  1  0.50000100  0.49999900  0.00000100  1
  Mn  Mn1  1  0.24999700  0.74999900  0.50000100  1
  Mn  Mn2  1  0.99999900  0.99999900  0.00000000  1
  Mn  Mn3  1  0.74999900  0.24999900  0.49999900  1
  Se  Se4  1  0.62500000  0.12500200  0.75000100  1
  Se  Se5  1  0.37500200  0.37500200  0.25000000  1
  Se  Se6  1  0.12500200  0.62500300  0.75000100  1
  Se  Se7  1  0.87500000  0.87499700  0.24999800  1
loop_
 _atom_site_moment_label
 _atom_site_moment_crystalaxis_x
 _atom_site_moment_crystalaxis_y
 _atom_site_moment_crystalaxis_z
  Mn0  -4.34844855  -1.44879661  -3.55033579
  Mn1  -4.34844855  -1.44879661  -3.55033579
  Mn2  4.34844855  1.44879661  3.55033579
  Mn3  4.34844855  1.44879661  3.55033579
