# generated using pymatgen
data_K2Mn3S4
_symmetry_space_group_name_H-M   'P 1'
_cell_length_a   5.58766601
_cell_length_b   7.19653330
_cell_length_c   10.67897108
_cell_angle_alpha   105.66748033
_cell_angle_beta   90.00401924
_cell_angle_gamma   89.99425494
_symmetry_Int_Tables_number   1
_chemical_formula_structural   K2Mn3S4
_chemical_formula_sum   'K4 Mn6 S8'
_cell_volume   413.46585078
_cell_formula_units_Z   2
loop_
 _symmetry_equiv_pos_site_id
 _symmetry_equiv_pos_as_xyz
  1  'x, y, z'
loop_
 _atom_site_type_symbol
 _atom_site_label
 _atom_site_symmetry_multiplicity
 _atom_site_fract_x
 _atom_site_fract_y
 _atom_site_fract_z
 _atom_site_occupancy
  K  K0  1  0.49137300  0.74997400  0.24997600  1
  K  K1  1  0.50867800  0.24997500  0.74997700  1
  K  K2  1  0.99998000  0.99992600  0.50000500  1
  K  K3  1  0.99996700  0.50003800  0.99996200  1
  Mn  Mn4  1  0.24922400  0.74998300  0.74998300  1
  Mn  Mn5  1  0.74986500  0.50497300  0.50433800  1
  Mn  Mn6  1  0.74986700  0.99501100  0.99563600  1
  Mn  Mn7  1  0.75078200  0.24999000  0.24999100  1
  Mn  Mn8  1  0.25013600  0.49485800  0.49549300  1
  Mn  Mn9  1  0.25013900  0.00522900  0.00460000  1
  S  S10  1  0.51918300  0.27083700  0.06649800  1
  S  S11  1  0.51913900  0.22919300  0.43350100  1
  S  S12  1  0.48081100  0.77070200  0.56645700  1
  S  S13  1  0.48082600  0.72933300  0.93354500  1
  S  S14  1  0.01825200  0.03588200  0.83155400  1
  S  S15  1  0.01825000  0.46411400  0.66847100  1
  S  S16  1  0.98179100  0.53584100  0.33147700  1
  S  S17  1  0.98173800  0.96414000  0.16853700  1
loop_
 _atom_site_moment_label
 _atom_site_moment_crystalaxis_x
 _atom_site_moment_crystalaxis_y
 _atom_site_moment_crystalaxis_z
  Mn4  -0.00013948  0.03899351  -3.91629017
  Mn5  -0.00012929  0.03614372  -3.63007289
  Mn6  -0.00012929  0.03614372  -3.63007289
  Mn7  0.00013948  -0.03899351  3.91629017
  Mn8  0.00012939  -0.03617351  3.63306471
  Mn9  0.00012939  -0.03617351  3.63306471
  S10  0.00000032  -0.00008937  0.00897545
  S11  0.00000032  -0.00008937  0.00897545
  S12  -0.00000039  0.00010923  -0.01097000
  S13  -0.00000039  0.00010923  -0.01097000
  S14  -0.00000039  0.00010923  -0.01097000
  S15  -0.00000039  0.00010923  -0.01097000
  S16  0.00000032  -0.00008937  0.00897545
  S17  0.00000032  -0.00008937  0.00897545
