# generated using pymatgen
data_FeGe
_symmetry_space_group_name_H-M   'P 1'
_cell_length_a   4.95828167
_cell_length_b   8.14196107
_cell_length_c   4.96098423
_cell_angle_alpha   90.01278323
_cell_angle_beta   60.01429716
_cell_angle_gamma   90.01295324
_symmetry_Int_Tables_number   1
_chemical_formula_structural   FeGe
_chemical_formula_sum   'Fe6 Ge6'
_cell_volume   173.46874198
_cell_formula_units_Z   6
loop_
 _symmetry_equiv_pos_site_id
 _symmetry_equiv_pos_as_xyz
  1  'x, y, z'
loop_
 _atom_site_type_symbol
 _atom_site_label
 _atom_site_symmetry_multiplicity
 _atom_site_fract_x
 _atom_site_fract_y
 _atom_site_fract_z
 _atom_site_occupancy
  Fe  Fe0  1  0.00000000  0.50000000  0.49999900  1
  Fe  Fe1  1  0.49999900  0.50000000  0.50000100  1
  Fe  Fe2  1  0.49999900  0.50000000  0.00000100  1
  Fe  Fe3  1  0.00000000  0.00000000  0.50000000  1
  Fe  Fe4  1  0.50000000  0.00000000  0.50000000  1
  Fe  Fe5  1  0.50000000  0.00000000  0.00000000  1
  Ge  Ge6  1  0.00000000  0.00000000  0.00000000  1
  Ge  Ge7  1  0.00000000  0.50000000  0.00000000  1
  Ge  Ge8  1  0.66667400  0.24999000  0.66665500  1
  Ge  Ge9  1  0.66667300  0.75000500  0.66665500  1
  Ge  Ge10  1  0.33332700  0.24999500  0.33334500  1
  Ge  Ge11  1  0.33332600  0.75001000  0.33334500  1
loop_
 _atom_site_moment_label
 _atom_site_moment_crystalaxis_x
 _atom_site_moment_crystalaxis_y
 _atom_site_moment_crystalaxis_z
  Fe0  -0.00011807  -1.55300004  -0.00011343
  Fe1  -0.00011890  -1.56400004  -0.00011423
  Fe2  -0.00011807  -1.55300004  -0.00011343
  Fe3  0.00011822  1.55500004  0.00011357
  Fe4  0.00011852  1.55900004  0.00011387
  Fe5  0.00011830  1.55600004  0.00011365
  Ge6  -0.00000829  -0.10900000  -0.00000796
  Ge7  0.00000829  0.10900000  0.00000796
