# generated using pymatgen
data_RbMnP
_symmetry_space_group_name_H-M   'P 1'
_cell_length_a   3.98570500
_cell_length_b   3.98583601
_cell_length_c   22.81067403
_cell_angle_alpha   89.99411505
_cell_angle_beta   90.00056127
_cell_angle_gamma   89.99931001
_symmetry_Int_Tables_number   1
_chemical_formula_structural   RbMnP
_chemical_formula_sum   'Rb4 Mn4 P4'
_cell_volume   362.37872571
_cell_formula_units_Z   4
loop_
 _symmetry_equiv_pos_site_id
 _symmetry_equiv_pos_as_xyz
  1  'x, y, z'
loop_
 _atom_site_type_symbol
 _atom_site_label
 _atom_site_symmetry_multiplicity
 _atom_site_fract_x
 _atom_site_fract_y
 _atom_site_fract_z
 _atom_site_occupancy
  Rb  Rb0  1  0.00000200  0.49999700  0.14002000  1
  Rb  Rb1  1  0.99999800  0.49999600  0.63997700  1
  Rb  Rb2  1  0.50000800  0.00000100  0.36002100  1
  Rb  Rb3  1  0.50000700  0.00000300  0.85998000  1
  Mn  Mn4  1  0.99998600  0.99997200  0.49999800  1
  Mn  Mn5  1  0.50000000  0.50001900  0.00000200  1
  Mn  Mn6  1  0.00000100  0.99999200  0.99999800  1
  Mn  Mn7  1  0.50000600  0.50002500  0.50000200  1
  P  P8  1  0.00000700  0.49996800  0.44451200  1
  P  P9  1  0.99999900  0.50000100  0.94445300  1
  P  P10  1  0.50000400  0.00000700  0.05554700  1
  P  P11  1  0.49998400  0.00001900  0.55548800  1
loop_
 _atom_site_moment_label
 _atom_site_moment_crystalaxis_x
 _atom_site_moment_crystalaxis_y
 _atom_site_moment_crystalaxis_z
  Mn4  -0.00001436  0.00015334  -3.00500001
  Mn5  -0.00001436  0.00015334  -3.00500001
  Mn6  0.00001436  -0.00015334  3.00500001
  Mn7  0.00001436  -0.00015339  3.00600001
