# generated using pymatgen
data_FeGe2
_symmetry_space_group_name_H-M   'P 1'
_cell_length_a   4.95274622
_cell_length_b   5.91964435
_cell_length_c   5.91963768
_cell_angle_alpha   90.00136399
_cell_angle_beta   89.99989368
_cell_angle_gamma   90.00002566
_symmetry_Int_Tables_number   1
_chemical_formula_structural   FeGe2
_chemical_formula_sum   'Fe4 Ge8'
_cell_volume   173.55487478
_cell_formula_units_Z   4
loop_
 _symmetry_equiv_pos_site_id
 _symmetry_equiv_pos_as_xyz
  1  'x, y, z'
loop_
 _atom_site_type_symbol
 _atom_site_label
 _atom_site_symmetry_multiplicity
 _atom_site_fract_x
 _atom_site_fract_y
 _atom_site_fract_z
 _atom_site_occupancy
  Fe  Fe0  1  0.75000000  0.49999900  0.49999900  1
  Fe  Fe1  1  0.25000000  0.50000000  0.50000100  1
  Fe  Fe2  1  0.24999900  0.99999900  0.99999900  1
  Fe  Fe3  1  0.75000100  0.00000100  0.00000000  1
  Ge  Ge4  1  0.00000100  0.65693100  0.15693200  1
  Ge  Ge5  1  0.49999900  0.15693200  0.65693100  1
  Ge  Ge6  1  0.49999900  0.84306800  0.34306900  1
  Ge  Ge7  1  0.00000000  0.34306900  0.84306800  1
  Ge  Ge8  1  0.50000000  0.34306300  0.15693800  1
  Ge  Ge9  1  0.00000100  0.84306200  0.65693700  1
  Ge  Ge10  1  0.00000000  0.15693800  0.34306300  1
  Ge  Ge11  1  0.49999900  0.65693800  0.84306200  1
loop_
 _atom_site_moment_label
 _atom_site_moment_crystalaxis_x
 _atom_site_moment_crystalaxis_y
 _atom_site_moment_crystalaxis_z
  Fe0  -0.79629040  -0.95185610  -0.95185534
  Fe1  -0.79629040  -0.95185610  -0.95185534
  Fe2  0.79425385  0.94942168  0.94942092
  Fe3  0.79527212  0.95063889  0.95063813
