# generated using pymatgen
data_RbFe2S3
_symmetry_space_group_name_H-M   'P 1'
_cell_length_a   5.28577000
_cell_length_b   7.49608810
_cell_length_c   7.49608728
_cell_angle_alpha   102.97067518
_cell_angle_beta   90.00058975
_cell_angle_gamma   89.99939521
_symmetry_Int_Tables_number   1
_chemical_formula_structural   RbFe2S3
_chemical_formula_sum   'Rb2 Fe4 S6'
_cell_volume   289.43614710
_cell_formula_units_Z   2
loop_
 _symmetry_equiv_pos_site_id
 _symmetry_equiv_pos_as_xyz
  1  'x, y, z'
loop_
 _atom_site_type_symbol
 _atom_site_label
 _atom_site_symmetry_multiplicity
 _atom_site_fract_x
 _atom_site_fract_y
 _atom_site_fract_z
 _atom_site_occupancy
  Rb  Rb0  1  0.75000000  0.67586200  0.32413600  1
  Rb  Rb1  1  0.25000000  0.32413600  0.67586200  1
  Fe  Fe2  1  0.50000000  0.14107200  0.14107200  1
  Fe  Fe3  1  0.50000000  0.85891600  0.85891600  1
  Fe  Fe4  1  0.00000000  0.85891800  0.85891800  1
  Fe  Fe5  1  0.00000000  0.14108300  0.14108300  1
  S  S6  1  0.25000400  0.89155300  0.10845100  1
  S  S7  1  0.74999600  0.10845100  0.89155300  1
  S  S8  1  0.24999200  0.37528900  0.16614700  1
  S  S9  1  0.74999900  0.62471700  0.83385600  1
  S  S10  1  0.75000800  0.16614800  0.37528900  1
  S  S11  1  0.25000100  0.83385600  0.62471700  1
loop_
 _atom_site_moment_label
 _atom_site_moment_crystalaxis_x
 _atom_site_moment_crystalaxis_y
 _atom_site_moment_crystalaxis_z
  Fe2  -0.00001252  0.01042572  -2.39563840
  Fe3  -0.00001250  0.01041268  -2.39264135
  Fe4  0.00001251  -0.01041703  2.39364037
  Fe5  0.00001251  -0.01042138  2.39463939
