# generated using pymatgen
data_Li3MnP2
_symmetry_space_group_name_H-M   'P 1'
_cell_length_a   4.03293200
_cell_length_b   12.19909129
_cell_length_c   8.10924896
_cell_angle_alpha   70.39956933
_cell_angle_beta   90.00186839
_cell_angle_gamma   89.99844472
_symmetry_Int_Tables_number   1
_chemical_formula_structural   Li3MnP2
_chemical_formula_sum   'Li12 Mn4 P8'
_cell_volume   375.84194016
_cell_formula_units_Z   4
loop_
 _symmetry_equiv_pos_site_id
 _symmetry_equiv_pos_as_xyz
  1  'x, y, z'
loop_
 _atom_site_type_symbol
 _atom_site_label
 _atom_site_symmetry_multiplicity
 _atom_site_fract_x
 _atom_site_fract_y
 _atom_site_fract_z
 _atom_site_occupancy
  Li  Li0  1  0.99999100  0.50112400  0.24932700  1
  Li  Li1  1  0.99999100  0.50111300  0.74946100  1
  Li  Li2  1  0.50000700  0.99904900  0.25052600  1
  Li  Li3  1  0.50000800  0.99904900  0.75050900  1
  Li  Li4  1  0.49998900  0.75355400  0.87365000  1
  Li  Li5  1  0.49999500  0.75360000  0.37363600  1
  Li  Li6  1  0.00000800  0.74610000  0.12649000  1
  Li  Li7  1  0.00001300  0.74612300  0.62651400  1
  Li  Li8  1  0.99999700  0.25346000  0.37337700  1
  Li  Li9  1  0.99999700  0.25347100  0.87339700  1
  Li  Li10  1  0.49999700  0.24671800  0.12654400  1
  Li  Li11  1  0.49999900  0.24668500  0.62652500  1
  Mn  Mn12  1  0.00000300  0.00137100  0.49943400  1
  Mn  Mn13  1  0.49999900  0.49861300  0.00058800  1
  Mn  Mn14  1  0.00000200  0.00131100  0.99944200  1
  Mn  Mn15  1  0.50000200  0.49860500  0.50059300  1
  P  P16  1  0.00000600  0.11196800  0.19319900  1
  P  P17  1  0.00001000  0.11197500  0.69310100  1
  P  P18  1  0.99999800  0.61348400  0.94260100  1
  P  P19  1  0.99999600  0.61347100  0.44262700  1
  P  P20  1  0.50000500  0.88643800  0.05740700  1
  P  P21  1  0.50000000  0.88644900  0.55743000  1
  P  P22  1  0.49999800  0.38814600  0.30672700  1
  P  P23  1  0.49999100  0.38812400  0.80689900  1
loop_
 _atom_site_moment_label
 _atom_site_moment_crystalaxis_x
 _atom_site_moment_crystalaxis_y
 _atom_site_moment_crystalaxis_z
  Li8  -0.00000006  0.00318452  -0.00106334
  Li9  0.00000006  -0.00318452  0.00106334
  Li10  -0.00000006  0.00318452  -0.00106334
  Li11  0.00000006  -0.00318452  0.00106334
  Mn12  0.00006591  -3.49129912  1.16577881
  Mn13  0.00006587  -3.48917611  1.16506992
  Mn14  -0.00006593  3.49236063  -1.16613326
  Mn15  -0.00006583  3.48705309  -1.16436102
  P16  0.00000010  -0.00530754  0.00177224
  P17  -0.00000010  0.00530754  -0.00177224
  P18  -0.00000136  0.07218253  -0.02410245
  P19  0.00000140  -0.07430555  0.02481135
  P20  0.00000136  -0.07218253  0.02410245
  P21  -0.00000136  0.07218253  -0.02410245
  P22  0.00000012  -0.00636905  0.00212669
  P23  -0.00000008  0.00424603  -0.00141779
