# generated using pymatgen
data_KFeS2
_symmetry_space_group_name_H-M   'P 1'
_cell_length_a   5.27608701
_cell_length_b   6.73022813
_cell_length_c   6.73022712
_cell_angle_alpha   116.71477203
_cell_angle_beta   101.21369884
_cell_angle_gamma   101.21378196
_symmetry_Int_Tables_number   1
_chemical_formula_structural   KFeS2
_chemical_formula_sum   'K2 Fe2 S4'
_cell_volume   198.26663567
_cell_formula_units_Z   2
loop_
 _symmetry_equiv_pos_site_id
 _symmetry_equiv_pos_as_xyz
  1  'x, y, z'
loop_
 _atom_site_type_symbol
 _atom_site_label
 _atom_site_symmetry_multiplicity
 _atom_site_fract_x
 _atom_site_fract_y
 _atom_site_fract_z
 _atom_site_occupancy
  K  K0  1  0.25000000  0.35797800  0.64202200  1
  K  K1  1  0.75000000  0.64202400  0.35797600  1
  Fe  Fe2  1  0.25000000  0.99818300  0.00181700  1
  Fe  Fe3  1  0.75000000  0.00181800  0.99818200  1
  S  S4  1  0.59928100  0.08494000  0.30081400  1
  S  S5  1  0.90071900  0.69918600  0.91506100  1
  S  S6  1  0.09925800  0.30081100  0.08493900  1
  S  S7  1  0.40074200  0.91506100  0.69918900  1
loop_
 _atom_site_moment_label
 _atom_site_moment_crystalaxis_x
 _atom_site_moment_crystalaxis_y
 _atom_site_moment_crystalaxis_z
  K0  -0.00000513  0.00000286  0.00100027
  K1  0.00000513  -0.00000286  -0.00100027
  Fe2  0.01410438  -0.00787094  -2.74974032
  Fe3  -0.01410438  0.00787094  2.74974032
  S4  -0.00001026  0.00000573  0.00200054
  S5  -0.00001026  0.00000573  0.00200054
  S6  0.00001026  -0.00000573  -0.00200054
  S7  0.00001026  -0.00000573  -0.00200054
