# generated using pymatgen
data_Ba3CrS5
_symmetry_space_group_name_H-M   'P 1'
_cell_length_a   6.14487701
_cell_length_b   9.28653388
_cell_length_c   9.28755124
_cell_angle_alpha   59.99897003
_cell_angle_beta   89.99522394
_cell_angle_gamma   89.99687087
_symmetry_Int_Tables_number   1
_chemical_formula_structural   Ba3CrS5
_chemical_formula_sum   'Ba6 Cr2 S10'
_cell_volume   458.98045000
_cell_formula_units_Z   2
loop_
 _symmetry_equiv_pos_site_id
 _symmetry_equiv_pos_as_xyz
  1  'x, y, z'
loop_
 _atom_site_type_symbol
 _atom_site_label
 _atom_site_symmetry_multiplicity
 _atom_site_fract_x
 _atom_site_fract_y
 _atom_site_fract_z
 _atom_site_occupancy
  Ba  Ba0  1  0.16983400  0.62104500  0.37895600  1
  Ba  Ba1  1  0.66984900  0.00000000  0.37895900  1
  Ba  Ba2  1  0.66984900  0.62104200  0.99999900  1
  Ba  Ba3  1  0.16983300  0.37895300  0.00000300  1
  Ba  Ba4  1  0.16983400  0.00000300  0.62104200  1
  Ba  Ba5  1  0.66984900  0.37895700  0.62103900  1
  Cr  Cr6  1  0.40490700  0.00000000  0.00000000  1
  Cr  Cr7  1  0.90489700  0.00000000  0.00000000  1
  S  S8  1  0.41968900  0.66666600  0.66666700  1
  S  S9  1  0.91969500  0.33333500  0.33333300  1
  S  S10  1  0.41968900  0.33333400  0.33333300  1
  S  S11  1  0.91969500  0.66666600  0.66666800  1
  S  S12  1  0.15481600  0.79235600  0.00000100  1
  S  S13  1  0.65531900  0.79235900  0.20764000  1
  S  S14  1  0.65533200  0.99999900  0.79236000  1
  S  S15  1  0.15479500  0.00000000  0.20764700  1
  S  S16  1  0.15480800  0.20764700  0.79235500  1
  S  S17  1  0.65531200  0.20763900  0.99999900  1
loop_
 _atom_site_moment_label
 _atom_site_moment_crystalaxis_x
 _atom_site_moment_crystalaxis_y
 _atom_site_moment_crystalaxis_z
  Ba0  0.00000001  0.00100000  -0.00100003
  Ba3  0.00000001  0.00100000  -0.00100003
  Ba4  0.00000001  0.00100000  -0.00100003
  Cr6  0.00004016  2.78399245  -2.78409424
  Cr7  -0.00003898  -2.70199267  2.70209146
  S8  -0.00000053  -0.03699990  0.03700125
  S9  -0.00000068  -0.04699987  0.04700159
  S10  -0.00000050  -0.03499991  0.03500118
  S11  -0.00000071  -0.04899987  0.04900166
  S12  0.00000003  0.00199999  -0.00200007
  S13  0.00000003  0.00199999  -0.00200007
  S14  0.00000003  0.00199999  -0.00200007
  S15  0.00000003  0.00199999  -0.00200007
  S16  0.00000003  0.00199999  -0.00200007
  S17  0.00000003  0.00199999  -0.00200007
