# generated using pymatgen
data_K(FeAs)2
_symmetry_space_group_name_H-M   'P 1'
_cell_length_a   3.80155090
_cell_length_b   7.62459542
_cell_length_c   7.45917507
_cell_angle_alpha   103.30333886
_cell_angle_beta   90.01879248
_cell_angle_gamma   75.56036542
_symmetry_Int_Tables_number   1
_chemical_formula_structural   K(FeAs)2
_chemical_formula_sum   'K2 Fe4 As4'
_cell_volume   203.38434878
_cell_formula_units_Z   2
loop_
 _symmetry_equiv_pos_site_id
 _symmetry_equiv_pos_as_xyz
  1  'x, y, z'
loop_
 _atom_site_type_symbol
 _atom_site_label
 _atom_site_symmetry_multiplicity
 _atom_site_fract_x
 _atom_site_fract_y
 _atom_site_fract_z
 _atom_site_occupancy
  K  K0  1  0.00002000  0.99995700  0.49999500  1
  K  K1  1  0.99999700  0.00000300  0.00002700  1
  Fe  Fe2  1  0.75128000  0.49732200  0.37837700  1
  Fe  Fe3  1  0.24870600  0.50272100  0.62146000  1
  Fe  Fe4  1  0.75128000  0.49731900  0.87880300  1
  Fe  Fe5  1  0.24871800  0.50266600  0.12134500  1
  As  As6  1  0.34994600  0.30016000  0.32205000  1
  As  As7  1  0.34983200  0.30029800  0.82249400  1
  As  As8  1  0.65004300  0.69993100  0.67788200  1
  As  As9  1  0.65017800  0.69962200  0.17756600  1
loop_
 _atom_site_moment_label
 _atom_site_moment_crystalaxis_x
 _atom_site_moment_crystalaxis_y
 _atom_site_moment_crystalaxis_z
  Fe2  0.83916752  -1.67513684  -0.81933434
  Fe3  0.84165320  -1.68009874  -0.82176128
  Fe4  -0.84016179  1.67712160  0.82030512
  Fe5  -0.83817324  1.67315208  0.81836357
  As6  -0.02435972  0.04862660  0.02378399
  As7  0.02386258  -0.04763422  -0.02329861
  As8  -0.02386258  0.04763422  0.02329861
  As9  0.02386258  -0.04763422  -0.02329861
