# generated using pymatgen
data_NaVSe2
_symmetry_space_group_name_H-M   'P 1'
_cell_length_a   3.80400972
_cell_length_b   12.51835681
_cell_length_c   7.32498439
_cell_angle_alpha   74.35116301
_cell_angle_beta   90.01102341
_cell_angle_gamma   89.98865999
_symmetry_Int_Tables_number   1
_chemical_formula_structural   NaVSe2
_chemical_formula_sum   'Na4 V4 Se8'
_cell_volume   335.88583907
_cell_formula_units_Z   4
loop_
 _symmetry_equiv_pos_site_id
 _symmetry_equiv_pos_as_xyz
  1  'x, y, z'
loop_
 _atom_site_type_symbol
 _atom_site_label
 _atom_site_symmetry_multiplicity
 _atom_site_fract_x
 _atom_site_fract_y
 _atom_site_fract_z
 _atom_site_occupancy
  Na  Na0  1  0.00029700  0.75883400  0.74445400  1
  Na  Na1  1  0.49998800  0.99099500  0.50548000  1
  Na  Na2  1  0.99993100  0.25885000  0.24454100  1
  Na  Na3  1  0.49989200  0.49114200  0.00535900  1
  V  V4  1  0.00014600  0.51322000  0.48106300  1
  V  V5  1  0.49973300  0.73669600  0.26906500  1
  V  V6  1  0.99975800  0.01339800  0.98086000  1
  V  V7  1  0.50028700  0.23671700  0.76903400  1
  Se  Se8  1  0.50000900  0.61769400  0.60060200  1
  Se  Se9  1  0.99977400  0.86659500  0.32508100  1
  Se  Se10  1  0.50001000  0.11785400  0.10051200  1
  Se  Se11  1  0.00034200  0.36657700  0.82518100  1
  Se  Se12  1  0.49965500  0.88348400  0.92488100  1
  Se  Se13  1  0.00014000  0.13232200  0.64940500  1
  Se  Se14  1  0.50025200  0.38340400  0.42488000  1
  Se  Se15  1  0.99978800  0.63221300  0.14959800  1
loop_
 _atom_site_moment_label
 _atom_site_moment_crystalaxis_x
 _atom_site_moment_crystalaxis_y
 _atom_site_moment_crystalaxis_z
  Na0  -0.00026230  -0.00044743  -0.00074279
  Na1  0.00026230  0.00044743  0.00074279
  Na2  0.00052461  0.00089485  0.00148559
  Na3  -0.00026230  -0.00044743  -0.00074279
  V4  -0.49260435  -0.84026474  -1.39496676
  V5  -0.49391586  -0.84250186  -1.39868073
  V6  0.49312895  0.84115959  1.39645235
  V7  0.49312895  0.84115959  1.39645235
  Se8  0.02124651  0.03624145  0.06016630
  Se9  0.00550836  0.00939593  0.01559867
  Se10  -0.02098421  -0.03579402  -0.05942350
  Se11  -0.00550836  -0.00939593  -0.01559867
  Se12  -0.00550836  -0.00939593  -0.01559867
  Se13  -0.02124651  -0.03624145  -0.06016630
  Se14  0.00550836  0.00939593  0.01559867
  Se15  0.02124651  0.03624145  0.06016630
