# generated using pymatgen
data_Li3MnAs2
_symmetry_space_group_name_H-M   'P 1'
_cell_length_a   4.19728300
_cell_length_b   4.19729300
_cell_length_c   12.09306300
_cell_angle_alpha   89.99993953
_cell_angle_beta   90.00000000
_cell_angle_gamma   89.99991810
_symmetry_Int_Tables_number   1
_chemical_formula_structural   Li3MnAs2
_chemical_formula_sum   'Li6 Mn2 As4'
_cell_volume   213.04623061
_cell_formula_units_Z   2
loop_
 _symmetry_equiv_pos_site_id
 _symmetry_equiv_pos_as_xyz
  1  'x, y, z'
loop_
 _atom_site_type_symbol
 _atom_site_label
 _atom_site_symmetry_multiplicity
 _atom_site_fract_x
 _atom_site_fract_y
 _atom_site_fract_z
 _atom_site_occupancy
  Li  Li0  1  0.50000100  0.50000100  0.75130100  1
  Li  Li1  1  0.99999900  0.00000100  0.74872100  1
  Li  Li2  1  0.00000000  0.00000100  0.49999900  1
  Li  Li3  1  0.00000000  0.00000000  0.25127900  1
  Li  Li4  1  0.49999900  0.49999900  0.00000100  1
  Li  Li5  1  0.50000000  0.50000100  0.24869800  1
  Mn  Mn6  1  0.00000100  0.99999900  0.99999900  1
  Mn  Mn7  1  0.50000000  0.50000000  0.50000200  1
  As  As8  1  0.00000100  0.49999900  0.11719600  1
  As  As9  1  0.00000100  0.50000100  0.61720200  1
  As  As10  1  0.49999900  0.99999800  0.88280400  1
  As  As11  1  0.49999900  0.00000000  0.38279700  1
loop_
 _atom_site_moment_label
 _atom_site_moment_crystalaxis_x
 _atom_site_moment_crystalaxis_y
 _atom_site_moment_crystalaxis_z
  Li0  0.00000000  0.00000000  0.00600000
  Li1  0.00000000  0.00000000  0.00600000
  Li2  0.00000000  0.00000000  -0.00200000
  Li3  0.00000000  0.00000000  0.00600000
  Li4  0.00000000  0.00000000  -0.00200000
  Li5  0.00000000  0.00000000  0.00600000
  Mn6  0.00000000  -0.00000218  3.76300000
  Mn7  0.00000000  -0.00000218  3.76300000
  As8  0.00000000  0.00000004  -0.06200000
  As9  0.00000000  0.00000004  -0.06200000
  As10  0.00000000  0.00000004  -0.06200000
  As11  0.00000000  0.00000004  -0.06200000
