# generated using pymatgen
data_FeAs
_symmetry_space_group_name_H-M   'P 1'
_cell_length_a   3.28233100
_cell_length_b   5.48350100
_cell_length_c   6.05902800
_cell_angle_alpha   90.00036775
_cell_angle_beta   90.00027203
_cell_angle_gamma   90.00004880
_symmetry_Int_Tables_number   1
_chemical_formula_structural   FeAs
_chemical_formula_sum   'Fe4 As4'
_cell_volume   109.05441714
_cell_formula_units_Z   4
loop_
 _symmetry_equiv_pos_site_id
 _symmetry_equiv_pos_as_xyz
  1  'x, y, z'
loop_
 _atom_site_type_symbol
 _atom_site_label
 _atom_site_symmetry_multiplicity
 _atom_site_fract_x
 _atom_site_fract_y
 _atom_site_fract_z
 _atom_site_occupancy
  Fe  Fe0  1  0.24999700  0.00121000  0.79849300  1
  Fe  Fe1  1  0.74998100  0.49883600  0.29843800  1
  Fe  Fe2  1  0.75000400  0.99873300  0.20155300  1
  Fe  Fe3  1  0.25001900  0.50119700  0.70153500  1
  As  As4  1  0.75000400  0.79914600  0.57297800  1
  As  As5  1  0.24999700  0.20094200  0.42690300  1
  As  As6  1  0.74999800  0.29902600  0.92705400  1
  As  As7  1  0.25000100  0.70091100  0.07304600  1
loop_
 _atom_site_moment_label
 _atom_site_moment_crystalaxis_x
 _atom_site_moment_crystalaxis_y
 _atom_site_moment_crystalaxis_z
  Fe0  -0.00000275  -0.00000374  -1.19200000
  Fe1  -0.00000275  -0.00000373  -1.18900000
  Fe2  0.00000275  0.00000373  1.19000000
  Fe3  0.00000275  0.00000373  1.19100000
  As4  0.00000000  0.00000000  0.00100000
  As5  0.00000000  0.00000000  -0.00100000
  As6  0.00000000  0.00000000  -0.00100000
  As7  0.00000000  0.00000000  0.00100000
