# generated using pymatgen
data_Ca(MnSb)2
_symmetry_space_group_name_H-M   'P 1'
_cell_length_a   4.47520400
_cell_length_b   4.47520370
_cell_length_c   7.44028800
_cell_angle_alpha   90.00000000
_cell_angle_beta   90.00000000
_cell_angle_gamma   59.99999775
_symmetry_Int_Tables_number   1
_chemical_formula_structural   Ca(MnSb)2
_chemical_formula_sum   'Ca1 Mn2 Sb2'
_cell_volume   129.04643560
_cell_formula_units_Z   1
loop_
 _symmetry_equiv_pos_site_id
 _symmetry_equiv_pos_as_xyz
  1  'x, y, z'
loop_
 _atom_site_type_symbol
 _atom_site_label
 _atom_site_symmetry_multiplicity
 _atom_site_fract_x
 _atom_site_fract_y
 _atom_site_fract_z
 _atom_site_occupancy
  Ca  Ca0  1  0.00000000  0.00000000  0.00000000  1
  Mn  Mn1  1  0.33333300  0.33333300  0.38616300  1
  Mn  Mn2  1  0.66666700  0.66666700  0.61383700  1
  Sb  Sb3  1  0.33333300  0.33333300  0.74262400  1
  Sb  Sb4  1  0.66666700  0.66666700  0.25737600  1
loop_
 _atom_site_moment_label
 _atom_site_moment_crystalaxis_x
 _atom_site_moment_crystalaxis_y
 _atom_site_moment_crystalaxis_z
  Mn1  0.00000000  0.00000000  -3.84700000
  Mn2  0.00000000  0.00000000  3.84900000
  Sb3  0.00000000  0.00000000  -0.00600000
  Sb4  0.00000000  0.00000000  0.00500000
