# generated using pymatgen
data_K(CoSe)2
_symmetry_space_group_name_H-M   'P 1'
_cell_length_a   3.88682141
_cell_length_b   3.88682503
_cell_length_c   7.19769170
_cell_angle_alpha   74.33956383
_cell_angle_beta   74.33954755
_cell_angle_gamma   90.01369496
_symmetry_Int_Tables_number   1
_chemical_formula_structural   K(CoSe)2
_chemical_formula_sum   'K1 Co2 Se2'
_cell_volume   100.50122744
_cell_formula_units_Z   1
loop_
 _symmetry_equiv_pos_site_id
 _symmetry_equiv_pos_as_xyz
  1  'x, y, z'
loop_
 _atom_site_type_symbol
 _atom_site_label
 _atom_site_symmetry_multiplicity
 _atom_site_fract_x
 _atom_site_fract_y
 _atom_site_fract_z
 _atom_site_occupancy
  K  K0  1  0.99999800  0.00000100  0.00000000  1
  Co  Co1  1  0.74996500  0.25003500  0.50000000  1
  Co  Co2  1  0.25003600  0.74996400  0.50000000  1
  Se  Se3  1  0.65127800  0.65127800  0.69757900  1
  Se  Se4  1  0.34872200  0.34872200  0.30242100  1
loop_
 _atom_site_moment_label
 _atom_site_moment_crystalaxis_x
 _atom_site_moment_crystalaxis_y
 _atom_site_moment_crystalaxis_z
  K0  -0.00432038  -0.00432038  0.00799972
  Co1  -0.52114556  -0.52114555  0.96496572
  Co2  -0.52060551  -0.52060550  0.96396575
  Se3  -0.02754241  -0.02754241  0.05099819
  Se4  -0.02754241  -0.02754241  0.05099819
