# generated using pymatgen
data_Sr(MnAs)2
_symmetry_space_group_name_H-M   'P 1'
_cell_length_a   4.24221601
_cell_length_b   4.24208237
_cell_length_c   7.28529700
_cell_angle_alpha   89.99990493
_cell_angle_beta   89.99992287
_cell_angle_gamma   59.99250156
_symmetry_Int_Tables_number   1
_chemical_formula_structural   Sr(MnAs)2
_chemical_formula_sum   'Sr1 Mn2 As2'
_cell_volume   113.53164979
_cell_formula_units_Z   1
loop_
 _symmetry_equiv_pos_site_id
 _symmetry_equiv_pos_as_xyz
  1  'x, y, z'
loop_
 _atom_site_type_symbol
 _atom_site_label
 _atom_site_symmetry_multiplicity
 _atom_site_fract_x
 _atom_site_fract_y
 _atom_site_fract_z
 _atom_site_occupancy
  Sr  Sr0  1  0.99998300  0.00001200  0.00000400  1
  Mn  Mn1  1  0.33335700  0.33339900  0.38908400  1
  Mn  Mn2  1  0.66665300  0.66659400  0.61089800  1
  As  As3  1  0.66667000  0.66666200  0.27522800  1
  As  As4  1  0.33333700  0.33333300  0.72478600  1
loop_
 _atom_site_moment_label
 _atom_site_moment_crystalaxis_x
 _atom_site_moment_crystalaxis_y
 _atom_site_moment_crystalaxis_z
  Mn1  0.00000724  0.00002537  -3.72200000
  Mn2  -0.00000724  -0.00002537  3.72200000
  As3  -0.00000001  -0.00000005  0.00700000
  As4  0.00000001  0.00000005  -0.00700000
