# generated using pymatgen
data_KMnSb
_symmetry_space_group_name_H-M   'P 1'
_cell_length_a   4.62683200
_cell_length_b   4.62683500
_cell_length_c   8.24662800
_cell_angle_alpha   90.00001933
_cell_angle_beta   89.99995439
_cell_angle_gamma   90.00002477
_symmetry_Int_Tables_number   1
_chemical_formula_structural   KMnSb
_chemical_formula_sum   'K2 Mn2 Sb2'
_cell_volume   176.54041657
_cell_formula_units_Z   2
loop_
 _symmetry_equiv_pos_site_id
 _symmetry_equiv_pos_as_xyz
  1  'x, y, z'
loop_
 _atom_site_type_symbol
 _atom_site_label
 _atom_site_symmetry_multiplicity
 _atom_site_fract_x
 _atom_site_fract_y
 _atom_site_fract_z
 _atom_site_occupancy
  K  K0  1  0.50000000  0.00000000  0.65463300  1
  K  K1  1  0.00000000  0.50000000  0.34536700  1
  Mn  Mn2  1  0.00000000  0.00000000  0.00000000  1
  Mn  Mn3  1  0.50000000  0.50000000  0.00000000  1
  Sb  Sb4  1  0.50000000  0.00000000  0.18551300  1
  Sb  Sb5  1  0.00000000  0.50000000  0.81448700  1
loop_
 _atom_site_moment_label
 _atom_site_moment_crystalaxis_x
 _atom_site_moment_crystalaxis_y
 _atom_site_moment_crystalaxis_z
  Mn2  0.00000141  -0.00000047  -3.87200000
  Mn3  -0.00000141  0.00000047  3.87200000
