# generated using pymatgen
data_BaVS3
_symmetry_space_group_name_H-M   'P 1'
_cell_length_a   5.72774900
_cell_length_b   6.74643877
_cell_length_c   11.68353998
_cell_angle_alpha   90.00001166
_cell_angle_beta   90.00061252
_cell_angle_gamma   89.99981217
_symmetry_Int_Tables_number   1
_chemical_formula_structural   BaVS3
_chemical_formula_sum   'Ba4 V4 S12'
_cell_volume   451.47427576
_cell_formula_units_Z   4
loop_
 _symmetry_equiv_pos_site_id
 _symmetry_equiv_pos_as_xyz
  1  'x, y, z'
loop_
 _atom_site_type_symbol
 _atom_site_label
 _atom_site_symmetry_multiplicity
 _atom_site_fract_x
 _atom_site_fract_y
 _atom_site_fract_z
 _atom_site_occupancy
  Ba  Ba0  1  0.24999900  0.50000000  0.16666400  1
  Ba  Ba1  1  0.24999900  0.00000000  0.66666600  1
  Ba  Ba2  1  0.75000200  0.00000000  0.33333400  1
  Ba  Ba3  1  0.75000100  0.50000000  0.83333600  1
  V  V4  1  0.99999900  0.50000000  0.49999900  1
  V  V5  1  0.49999800  0.00000000  0.00000100  1
  V  V6  1  0.00000000  0.00000000  0.00000000  1
  V  V7  1  0.50000000  0.50000000  0.50000000  1
  S  S8  1  0.74999700  0.24396900  0.08131900  1
  S  S9  1  0.75001200  0.74397700  0.58132200  1
  S  S10  1  0.24998800  0.74397700  0.41867800  1
  S  S11  1  0.25000300  0.24396900  0.91868100  1
  S  S12  1  0.25000000  0.00000000  0.16264400  1
  S  S13  1  0.24998800  0.50000000  0.66265000  1
  S  S14  1  0.75001200  0.50000000  0.33735000  1
  S  S15  1  0.75000000  0.00000000  0.83735600  1
  S  S16  1  0.24998800  0.25602300  0.41867800  1
  S  S17  1  0.25000300  0.75603100  0.91868100  1
  S  S18  1  0.74999700  0.75603100  0.08131900  1
  S  S19  1  0.75001200  0.25602300  0.58132200  1
loop_
 _atom_site_moment_label
 _atom_site_moment_crystalaxis_x
 _atom_site_moment_crystalaxis_y
 _atom_site_moment_crystalaxis_z
  Ba0  -0.00000002  0.00150000  -0.00259808
  Ba1  -0.00000002  0.00150000  -0.00259808
  Ba2  -0.00000002  0.00150000  -0.00259808
  Ba3  -0.00000002  0.00150000  -0.00259808
  V4  0.00000477  -0.43499993  0.75344206
  V5  0.00000493  -0.44899992  0.77769077
  V6  0.00000497  -0.45349992  0.78548499
  V7  0.00000477  -0.43449993  0.75257603
  S8  -0.00000027  0.02450000  -0.04243524
  S9  -0.00000025  0.02300000  -0.03983717
  S10  -0.00000025  0.02300000  -0.03983717
  S11  -0.00000027  0.02450000  -0.04243524
  S12  -0.00000027  0.02450000  -0.04243524
  S13  -0.00000026  0.02400000  -0.04156922
  S14  -0.00000026  0.02400000  -0.04156922
  S15  -0.00000027  0.02450000  -0.04243524
  S16  -0.00000025  0.02300000  -0.03983717
  S17  -0.00000027  0.02450000  -0.04243524
  S18  -0.00000027  0.02450000  -0.04243524
  S19  -0.00000025  0.02300000  -0.03983717
