# generated using pymatgen
data_CoSe
_symmetry_space_group_name_H-M   'P 1'
_cell_length_a   3.60672505
_cell_length_b   6.24954826
_cell_length_c   5.20787014
_cell_angle_alpha   89.97348609
_cell_angle_beta   90.00151942
_cell_angle_gamma   89.98075370
_symmetry_Int_Tables_number   1
_chemical_formula_structural   CoSe
_chemical_formula_sum   'Co4 Se4'
_cell_volume   117.38746859
_cell_formula_units_Z   4
loop_
 _symmetry_equiv_pos_site_id
 _symmetry_equiv_pos_as_xyz
  1  'x, y, z'
loop_
 _atom_site_type_symbol
 _atom_site_label
 _atom_site_symmetry_multiplicity
 _atom_site_fract_x
 _atom_site_fract_y
 _atom_site_fract_z
 _atom_site_occupancy
  Co  Co0  1  0.50000100  0.50000000  0.00000000  1
  Co  Co1  1  0.00000100  0.00000000  0.50000000  1
  Co  Co2  1  0.00000000  0.00000000  0.00000000  1
  Co  Co3  1  0.49999800  0.50000000  0.50000000  1
  Se  Se4  1  0.00002800  0.33443300  0.25018400  1
  Se  Se5  1  0.50001900  0.83444400  0.25015600  1
  Se  Se6  1  0.49998100  0.16555600  0.74984400  1
  Se  Se7  1  0.99997200  0.66556700  0.74981600  1
loop_
 _atom_site_moment_label
 _atom_site_moment_crystalaxis_x
 _atom_site_moment_crystalaxis_y
 _atom_site_moment_crystalaxis_z
  Co0  -0.00000926  0.00016127  -0.69700006
  Co1  -0.00000902  0.00015711  -0.67900005
  Co2  0.00000921  -0.00016035  0.69300006
  Co3  0.00000898  -0.00015641  0.67600005
