# generated using pymatgen
data_KCrS2
_symmetry_space_group_name_H-M   'P 1'
_cell_length_a   3.67413652
_cell_length_b   3.67413617
_cell_length_c   14.31125809
_cell_angle_alpha   90.00000185
_cell_angle_beta   82.62486531
_cell_angle_gamma   60.00000868
_symmetry_Int_Tables_number   1
_chemical_formula_structural   KCrS2
_chemical_formula_sum   'K2 Cr2 S4'
_cell_volume   165.46078142
_cell_formula_units_Z   2
loop_
 _symmetry_equiv_pos_site_id
 _symmetry_equiv_pos_as_xyz
  1  'x, y, z'
loop_
 _atom_site_type_symbol
 _atom_site_label
 _atom_site_symmetry_multiplicity
 _atom_site_fract_x
 _atom_site_fract_y
 _atom_site_fract_z
 _atom_site_occupancy
  K  K0  1  0.50000000  0.75000000  0.25000000  1
  K  K1  1  0.50000000  0.25000000  0.75000000  1
  Cr  Cr2  1  0.00000000  0.50000000  0.50000000  1
  Cr  Cr3  1  0.00000000  0.00000000  0.00000000  1
  S  S4  1  0.27484300  0.36257900  0.08773600  1
  S  S5  1  0.27484300  0.86257900  0.58773600  1
  S  S6  1  0.72515700  0.13742200  0.41226500  1
  S  S7  1  0.72515700  0.63742200  0.91226500  1
loop_
 _atom_site_moment_label
 _atom_site_moment_crystalaxis_x
 _atom_site_moment_crystalaxis_y
 _atom_site_moment_crystalaxis_z
  Cr2  0.00000000  -0.73381447  -2.85830675
  Cr3  0.00000000  0.73381447  2.85830675
  S4  0.00000000  -0.01889864  -0.07361278
  S5  0.00000000  0.01889864  0.07361278
  S6  0.00000000  0.01889864  0.07361278
  S7  0.00000000  -0.01889864  -0.07361278
