# generated using pymatgen
data_Mn3As2
_symmetry_space_group_name_H-M   'P 1'
_cell_length_a   3.57228211
_cell_length_b   12.43391929
_cell_length_c   6.77858282
_cell_angle_alpha   93.00538612
_cell_angle_beta   105.27703140
_cell_angle_gamma   89.99421270
_symmetry_Int_Tables_number   1
_chemical_formula_structural   Mn3As2
_chemical_formula_sum   'Mn12 As8'
_cell_volume   290.01912032
_cell_formula_units_Z   4
loop_
 _symmetry_equiv_pos_site_id
 _symmetry_equiv_pos_as_xyz
  1  'x, y, z'
loop_
 _atom_site_type_symbol
 _atom_site_label
 _atom_site_symmetry_multiplicity
 _atom_site_fract_x
 _atom_site_fract_y
 _atom_site_fract_z
 _atom_site_occupancy
  Mn  Mn0  1  0.94463300  0.30096300  0.89086800  1
  Mn  Mn1  1  0.80193900  0.14975500  0.60452400  1
  Mn  Mn2  1  0.64924800  0.98337300  0.29760500  1
  Mn  Mn3  1  0.35023000  0.48433500  0.70131000  1
  Mn  Mn4  1  0.87873600  0.64813700  0.75522100  1
  Mn  Mn5  1  0.14730000  0.17192400  0.29638800  1
  Mn  Mn6  1  0.85048200  0.90087300  0.69916400  1
  Mn  Mn7  1  0.14539800  0.40909600  0.29209000  1
  Mn  Mn8  1  0.45402100  0.12302200  0.91011000  1
  Mn  Mn9  1  0.54889100  0.62601700  0.09652400  1
  Mn  Mn10  1  0.04155500  0.81078900  0.08266700  1
  Mn  Mn11  1  0.21915900  0.66797300  0.43731300  1
  As  As12  1  0.71974000  0.52675800  0.43980000  1
  As  As13  1  0.27702200  0.01600600  0.55360800  1
  As  As14  1  0.57691600  0.28194800  0.15564900  1
  As  As15  1  0.40882800  0.77372300  0.81550800  1
  As  As16  1  0.67357800  0.79389100  0.34597400  1
  As  As17  1  0.30846600  0.29046300  0.61735600  1
  As  As18  1  0.01984200  0.00617600  0.04068900  1
  As  As19  1  0.98401300  0.49477400  0.96763200  1
loop_
 _atom_site_moment_label
 _atom_site_moment_crystalaxis_x
 _atom_site_moment_crystalaxis_y
 _atom_site_moment_crystalaxis_z
  Mn0  -0.01925837  -2.57687742  -0.07348498
  Mn1  -0.01842788  -2.46575333  -0.07031605
  Mn2  -0.01804630  -2.41469632  -0.06886005
  Mn3  -0.02023101  -2.70702274  -0.07719634
  Mn4  -0.01852514  -2.47876787  -0.07068718
  Mn5  -0.01995418  -2.66998138  -0.07614003
  Mn6  0.02215385  2.96431004  0.08453342
  Mn7  0.02056769  2.75207305  0.07848105
  Mn8  0.02275240  3.04439947  0.08681734
  Mn9  0.02203414  2.94829215  0.08407664
  Mn10  0.02117373  2.83316360  0.08079351
  Mn11  0.02128596  2.84818036  0.08122174
  As12  -0.00017957  -0.02402683  -0.00068517
  As13  0.00015712  0.02102348  0.00059953
  As14  0.00011971  0.01601789  0.00045678
  As15  -0.00035913  -0.04805366  -0.00137035
  As16  -0.00053870  -0.07208049  -0.00205552
  As17  0.00072574  0.09710843  0.00276925
  As18  -0.00032920  -0.04404919  -0.00125615
  As19  0.00004489  0.00600671  0.00017129
