# generated using pymatgen
data_Cs2Co3S4
_symmetry_space_group_name_H-M   'P 1'
_cell_length_a   5.41481284
_cell_length_b   9.10149828
_cell_length_c   9.10150468
_cell_angle_alpha   72.98765122
_cell_angle_beta   72.67931802
_cell_angle_gamma   72.67935734
_symmetry_Int_Tables_number   1
_chemical_formula_structural   Cs2Co3S4
_chemical_formula_sum   'Cs4 Co6 S8'
_cell_volume   398.42408717
_cell_formula_units_Z   2
loop_
 _symmetry_equiv_pos_site_id
 _symmetry_equiv_pos_as_xyz
  1  'x, y, z'
loop_
 _atom_site_type_symbol
 _atom_site_label
 _atom_site_symmetry_multiplicity
 _atom_site_fract_x
 _atom_site_fract_y
 _atom_site_fract_z
 _atom_site_occupancy
  Cs  Cs0  1  0.74500500  0.62433000  0.37558000  1
  Cs  Cs1  1  0.75499500  0.12442000  0.87567100  1
  Cs  Cs2  1  0.24493200  0.87562100  0.12437700  1
  Cs  Cs3  1  0.25506800  0.37562400  0.62437900  1
  Co  Co4  1  0.25000000  0.49686700  0.00313300  1
  Co  Co5  1  0.25000000  0.00314800  0.49685200  1
  Co  Co6  1  0.75000000  0.99688900  0.50311100  1
  Co  Co7  1  0.75000000  0.75003400  0.74996700  1
  Co  Co8  1  0.75000000  0.50307800  0.99692200  1
  Co  Co9  1  0.25000000  0.24998400  0.25001600  1
  S  S10  1  0.42110200  0.95476900  0.70398000  1
  S  S11  1  0.92111300  0.20398000  0.45474700  1
  S  S12  1  0.58008700  0.54515100  0.79594800  1
  S  S13  1  0.57888700  0.04525200  0.29601900  1
  S  S14  1  0.07889800  0.79602000  0.54523100  1
  S  S15  1  0.41996800  0.45482300  0.20404200  1
  S  S16  1  0.08003100  0.29595700  0.04517700  1
  S  S17  1  0.91991400  0.70405200  0.95484900  1
loop_
 _atom_site_moment_label
 _atom_site_moment_crystalaxis_x
 _atom_site_moment_crystalaxis_y
 _atom_site_moment_crystalaxis_z
  Cs0  -0.00000248  -0.00000927  0.00400344
  Cs1  -0.00000248  -0.00000927  0.00400344
  Cs2  -0.00000248  -0.00000927  0.00400344
  Cs3  -0.00000248  -0.00000927  0.00400344
  Co4  -0.00050750  -0.00189996  0.82070458
  Co5  -0.00050193  -0.00187911  0.81169684
  Co6  -0.00049946  -0.00186984  0.80769341
  Co7  -0.00039486  -0.00147826  0.63854820
  Co8  -0.00049265  -0.00184436  0.79668396
  Co9  -0.00039177  -0.00146668  0.63354390
  S10  -0.00003961  -0.00014829  0.06405499
  S11  -0.00003899  -0.00014597  0.06305413
  S12  -0.00003899  -0.00014597  0.06305413
  S13  -0.00003899  -0.00014597  0.06305413
  S14  -0.00003961  -0.00014829  0.06405499
  S15  -0.00003899  -0.00014597  0.06305413
  S16  -0.00003899  -0.00014597  0.06305413
  S17  -0.00003899  -0.00014597  0.06305413
