# generated using pymatgen
data_Ba(FeAs)2
_symmetry_space_group_name_H-M   'P 1'
_cell_length_a   5.70125043
_cell_length_b   5.61462067
_cell_length_c   7.04691427
_cell_angle_alpha   89.99979957
_cell_angle_beta   66.16375012
_cell_angle_gamma   90.00004219
_symmetry_Int_Tables_number   1
_chemical_formula_structural   Ba(FeAs)2
_chemical_formula_sum   'Ba2 Fe4 As4'
_cell_volume   206.33370916
_cell_formula_units_Z   2
loop_
 _symmetry_equiv_pos_site_id
 _symmetry_equiv_pos_as_xyz
  1  'x, y, z'
loop_
 _atom_site_type_symbol
 _atom_site_label
 _atom_site_symmetry_multiplicity
 _atom_site_fract_x
 _atom_site_fract_y
 _atom_site_fract_z
 _atom_site_occupancy
  Ba  Ba0  1  0.00000100  0.99999200  0.99999900  1
  Ba  Ba1  1  0.49999900  0.50000900  0.00000100  1
  Fe  Fe2  1  0.50000000  0.24999700  0.50000100  1
  Fe  Fe3  1  0.50000000  0.74986600  0.49999900  1
  Fe  Fe4  1  0.00000000  0.75012600  0.50000000  1
  Fe  Fe5  1  0.00000000  0.24999500  0.49999900  1
  As  As6  1  0.35048800  0.00000300  0.29904100  1
  As  As7  1  0.85047700  0.50000600  0.29905600  1
  As  As8  1  0.64951200  0.00000200  0.70095900  1
  As  As9  1  0.14952200  0.50000600  0.70094500  1
loop_
 _atom_site_moment_label
 _atom_site_moment_crystalaxis_x
 _atom_site_moment_crystalaxis_y
 _atom_site_moment_crystalaxis_z
  Fe2  1.58043777  0.00000386  -1.97109727
  Fe3  1.57963388  0.00000386  -1.97009467
  Fe4  -1.58606496  -0.00000387  1.97811541
  Fe5  -1.57963388  -0.00000386  1.97009467
  As6  0.00080388  0.00000000  -0.00100259
  As7  0.00080388  0.00000000  -0.00100259
  As8  0.00080388  0.00000000  -0.00100259
  As9  0.00080388  0.00000000  -0.00100259
