# generated using pymatgen
data_Cs(CoS)2
_symmetry_space_group_name_H-M   'P 1'
_cell_length_a   3.79406588
_cell_length_b   3.79407309
_cell_length_c   7.48043473
_cell_angle_alpha   104.70046705
_cell_angle_beta   104.70044399
_cell_angle_gamma   89.99291257
_symmetry_Int_Tables_number   1
_chemical_formula_structural   Cs(CoS)2
_chemical_formula_sum   'Cs1 Co2 S2'
_cell_volume   100.50826936
_cell_formula_units_Z   1
loop_
 _symmetry_equiv_pos_site_id
 _symmetry_equiv_pos_as_xyz
  1  'x, y, z'
loop_
 _atom_site_type_symbol
 _atom_site_label
 _atom_site_symmetry_multiplicity
 _atom_site_fract_x
 _atom_site_fract_y
 _atom_site_fract_z
 _atom_site_occupancy
  Cs  Cs0  1  0.00000000  0.00000000  0.00000000  1
  Co  Co1  1  0.25001300  0.74998700  0.50000000  1
  Co  Co2  1  0.74998700  0.25001300  0.50000000  1
  S  S3  1  0.33339800  0.33339800  0.66669500  1
  S  S4  1  0.66660100  0.66660200  0.33330500  1
loop_
 _atom_site_moment_label
 _atom_site_moment_crystalaxis_x
 _atom_site_moment_crystalaxis_y
 _atom_site_moment_crystalaxis_z
  Cs0  -0.00000530  -0.00000529  0.00699731
  Co1  -0.00066364  -0.00066333  0.87666282
  Co2  -0.00066439  -0.00066409  0.87766244
  S3  -0.00004540  -0.00004538  0.05997693
  S4  -0.00004540  -0.00004538  0.05997693
