# generated using pymatgen
data_Ca(MnAs)2
_symmetry_space_group_name_H-M   'P 1'
_cell_length_a   4.16259100
_cell_length_b   4.16258521
_cell_length_c   6.97619500
_cell_angle_alpha   90.00011526
_cell_angle_beta   90.00009057
_cell_angle_gamma   59.99990262
_symmetry_Int_Tables_number   1
_chemical_formula_structural   Ca(MnAs)2
_chemical_formula_sum   'Ca1 Mn2 As2'
_cell_volume   104.68288784
_cell_formula_units_Z   1
loop_
 _symmetry_equiv_pos_site_id
 _symmetry_equiv_pos_as_xyz
  1  'x, y, z'
loop_
 _atom_site_type_symbol
 _atom_site_label
 _atom_site_symmetry_multiplicity
 _atom_site_fract_x
 _atom_site_fract_y
 _atom_site_fract_z
 _atom_site_occupancy
  Ca  Ca0  1  0.00000000  0.00000000  0.00001600  1
  Mn  Mn1  1  0.66666700  0.66666600  0.61398000  1
  Mn  Mn2  1  0.33333400  0.33333400  0.38600300  1
  As  As3  1  0.66666700  0.66666700  0.26471900  1
  As  As4  1  0.33333300  0.33333300  0.73528200  1
loop_
 _atom_site_moment_label
 _atom_site_moment_crystalaxis_x
 _atom_site_moment_crystalaxis_y
 _atom_site_moment_crystalaxis_z
  Mn1  -0.00000162  -0.00000301  -3.63300000
  Mn2  0.00000162  0.00000301  3.63300000
  As3  0.00000000  0.00000000  -0.00400000
  As4  0.00000000  0.00000000  0.00400000
