# generated using pymatgen
data_NaCrS2
_symmetry_space_group_name_H-M   'P 1'
_cell_length_a   3.58707646
_cell_length_b   9.85316705
_cell_length_c   8.51751892
_cell_angle_alpha   88.25538567
_cell_angle_beta   77.84663718
_cell_angle_gamma   100.49868280
_symmetry_Int_Tables_number   1
_chemical_formula_structural   NaCrS2
_chemical_formula_sum   'Na4 Cr4 S8'
_cell_volume   288.62751744
_cell_formula_units_Z   4
loop_
 _symmetry_equiv_pos_site_id
 _symmetry_equiv_pos_as_xyz
  1  'x, y, z'
loop_
 _atom_site_type_symbol
 _atom_site_label
 _atom_site_symmetry_multiplicity
 _atom_site_fract_x
 _atom_site_fract_y
 _atom_site_fract_z
 _atom_site_occupancy
  Na  Na0  1  0.87500700  0.62500800  0.87499600  1
  Na  Na1  1  0.12501200  0.37502100  0.12500400  1
  Na  Na2  1  0.37500500  0.12500500  0.37499700  1
  Na  Na3  1  0.62500000  0.87498600  0.62498200  1
  Cr  Cr4  1  0.25202700  0.75211000  0.24803800  1
  Cr  Cr5  1  0.49796500  0.49788000  0.50196000  1
  Cr  Cr6  1  0.75205300  0.25212100  0.74802400  1
  Cr  Cr7  1  0.99793400  0.99787900  0.00199900  1
  S  S8  1  0.68261800  0.58571900  0.22018600  1
  S  S9  1  0.93391300  0.33308400  0.46502000  1
  S  S10  1  0.18263600  0.08572900  0.72019500  1
  S  S11  1  0.43390800  0.83309500  0.96502700  1
  S  S12  1  0.06737200  0.66427600  0.52980800  1
  S  S13  1  0.31609000  0.41690200  0.78497600  1
  S  S14  1  0.56738200  0.16427900  0.02980300  1
  S  S15  1  0.81607800  0.91690600  0.28498400  1
loop_
 _atom_site_moment_label
 _atom_site_moment_crystalaxis_x
 _atom_site_moment_crystalaxis_y
 _atom_site_moment_crystalaxis_z
  Na0  0.00026327  -0.00071169  -0.00186598
  Na2  -0.00026327  0.00071169  0.00186598
  Cr4  0.37607865  -1.01664413  -2.66555880
  Cr5  0.37607865  -1.01664413  -2.66555880
  Cr6  -0.37607865  1.01664413  2.66555880
  Cr7  -0.37594701  1.01628828  2.66462581
  S8  -0.01053073  0.02846746  0.07463938
  S9  -0.00263268  0.00711686  0.01865984
  S10  0.01053073  -0.02846746  -0.07463938
  S11  0.00263268  -0.00711686  -0.01865984
  S12  -0.01053073  0.02846746  0.07463938
  S13  0.00263268  -0.00711686  -0.01865984
  S14  0.01053073  -0.02846746  -0.07463938
  S15  -0.00263268  0.00711686  0.01865984
