# generated using pymatgen
data_Cs2MnSe2
_symmetry_space_group_name_H-M   'P 1'
_cell_length_a   6.60403729
_cell_length_b   8.87041458
_cell_length_c   14.03057478
_cell_angle_alpha   80.95319478
_cell_angle_beta   76.39807553
_cell_angle_gamma   68.16202644
_symmetry_Int_Tables_number   1
_chemical_formula_structural   Cs2MnSe2
_chemical_formula_sum   'Cs8 Mn4 Se8'
_cell_volume   739.31939801
_cell_formula_units_Z   4
loop_
 _symmetry_equiv_pos_site_id
 _symmetry_equiv_pos_as_xyz
  1  'x, y, z'
loop_
 _atom_site_type_symbol
 _atom_site_label
 _atom_site_symmetry_multiplicity
 _atom_site_fract_x
 _atom_site_fract_y
 _atom_site_fract_z
 _atom_site_occupancy
  Cs  Cs0  1  0.85270800  0.55320500  0.74134500  1
  Cs  Cs1  1  0.85270100  0.05320300  0.24134400  1
  Cs  Cs2  1  0.14729900  0.44679600  0.25865500  1
  Cs  Cs3  1  0.14729100  0.94679600  0.75865500  1
  Cs  Cs4  1  0.64726900  0.61135800  0.09407500  1
  Cs  Cs5  1  0.64726800  0.11135600  0.59407600  1
  Cs  Cs6  1  0.35273300  0.38864300  0.90592500  1
  Cs  Cs7  1  0.35273000  0.88864300  0.40592500  1
  Mn  Mn8  1  0.74999700  0.49999700  0.50000100  1
  Mn  Mn9  1  0.25000200  0.00000300  0.99999900  1
  Mn  Mn10  1  0.74999800  0.99999700  0.00000100  1
  Mn  Mn11  1  0.25000200  0.50000300  0.49999900  1
  Se  Se12  1  0.90447100  0.23139900  0.95986700  1
  Se  Se13  1  0.90447400  0.73139800  0.45986700  1
  Se  Se14  1  0.40439600  0.55545100  0.63576300  1
  Se  Se15  1  0.40440100  0.05545100  0.13576300  1
  Se  Se16  1  0.09552600  0.76860200  0.04013300  1
  Se  Se17  1  0.09552900  0.26860100  0.54013300  1
  Se  Se18  1  0.59560000  0.44454900  0.36423700  1
  Se  Se19  1  0.59560400  0.94454900  0.86423700  1
loop_
 _atom_site_moment_label
 _atom_site_moment_crystalaxis_x
 _atom_site_moment_crystalaxis_y
 _atom_site_moment_crystalaxis_z
  Mn8  3.07308942  -2.02091654  -3.19722651
  Mn9  3.07308942  -2.02091654  -3.19722651
  Mn10  -3.07308942  2.02091654  3.19722651
  Mn11  -3.07308942  2.02091654  3.19722651
