# generated using pymatgen
data_Sr(CrAs)2
_symmetry_space_group_name_H-M   'P 1'
_cell_length_a   4.03485631
_cell_length_b   12.49382562
_cell_length_c   4.03486176
_cell_angle_alpha   90.00003951
_cell_angle_beta   90.00001137
_cell_angle_gamma   90.00012717
_symmetry_Int_Tables_number   1
_chemical_formula_structural   Sr(CrAs)2
_chemical_formula_sum   'Sr2 Cr4 As4'
_cell_volume   203.40057389
_cell_formula_units_Z   2
loop_
 _symmetry_equiv_pos_site_id
 _symmetry_equiv_pos_as_xyz
  1  'x, y, z'
loop_
 _atom_site_type_symbol
 _atom_site_label
 _atom_site_symmetry_multiplicity
 _atom_site_fract_x
 _atom_site_fract_y
 _atom_site_fract_z
 _atom_site_occupancy
  Sr  Sr0  1  0.99999900  0.00002600  0.00000000  1
  Sr  Sr1  1  0.50000000  0.49997400  0.50000000  1
  Cr  Cr2  1  0.00000000  0.75000000  0.50000000  1
  Cr  Cr3  1  0.00000100  0.25000000  0.50000000  1
  Cr  Cr4  1  0.49999900  0.25000000  0.00000100  1
  Cr  Cr5  1  0.50000000  0.75000000  0.00000000  1
  As  As6  1  0.00000000  0.36661100  0.00000000  1
  As  As7  1  0.50000000  0.86667500  0.50000000  1
  As  As8  1  0.50000000  0.13338900  0.50000000  1
  As  As9  1  0.00000000  0.63332500  0.00000100  1
loop_
 _atom_site_moment_label
 _atom_site_moment_crystalaxis_x
 _atom_site_moment_crystalaxis_y
 _atom_site_moment_crystalaxis_z
  Cr2  0.81474470  -2.43405355  0.81474666
  Cr3  0.81565233  -2.43676508  0.81565429
  Cr4  -0.81565233  2.43676508  -0.81565429
  Cr5  -0.81504725  2.43495739  -0.81504920
