# generated using pymatgen
data_Ba(MnSb)2
_symmetry_space_group_name_H-M   'P 1'
_cell_length_a   4.39357433
_cell_length_b   7.70751229
_cell_length_c   4.39368895
_cell_angle_alpha   73.50755998
_cell_angle_beta   89.97598465
_cell_angle_gamma   106.49106666
_symmetry_Int_Tables_number   1
_chemical_formula_structural   Ba(MnSb)2
_chemical_formula_sum   'Ba1 Mn2 Sb2'
_cell_volume   136.26372572
_cell_formula_units_Z   1
loop_
 _symmetry_equiv_pos_site_id
 _symmetry_equiv_pos_as_xyz
  1  'x, y, z'
loop_
 _atom_site_type_symbol
 _atom_site_label
 _atom_site_symmetry_multiplicity
 _atom_site_fract_x
 _atom_site_fract_y
 _atom_site_fract_z
 _atom_site_occupancy
  Ba  Ba0  1  0.99999800  0.00000300  0.99999600  1
  Mn  Mn1  1  0.24987700  0.49999700  0.24988200  1
  Mn  Mn2  1  0.75012600  0.50000000  0.75012400  1
  Sb  Sb3  1  0.63808800  0.27594000  0.36191200  1
  Sb  Sb4  1  0.36191100  0.72406000  0.63808700  1
loop_
 _atom_site_moment_label
 _atom_site_moment_crystalaxis_x
 _atom_site_moment_crystalaxis_y
 _atom_site_moment_crystalaxis_z
  Mn1  0.12989778  -3.61489143  2.18710588
  Mn2  -0.12986262  3.61391285  -2.18651381
