# generated using pymatgen
data_BaVS3
_symmetry_space_group_name_H-M   'P 1'
_cell_length_a   5.64227541
_cell_length_b   6.75803675
_cell_length_c   6.75799274
_cell_angle_alpha   60.73556495
_cell_angle_beta   90.08851491
_cell_angle_gamma   90.08883580
_symmetry_Int_Tables_number   1
_chemical_formula_structural   BaVS3
_chemical_formula_sum   'Ba2 V2 S6'
_cell_volume   224.79880931
_cell_formula_units_Z   2
loop_
 _symmetry_equiv_pos_site_id
 _symmetry_equiv_pos_as_xyz
  1  'x, y, z'
loop_
 _atom_site_type_symbol
 _atom_site_label
 _atom_site_symmetry_multiplicity
 _atom_site_fract_x
 _atom_site_fract_y
 _atom_site_fract_z
 _atom_site_occupancy
  Ba  Ba0  1  0.25356600  0.33451600  0.33451800  1
  Ba  Ba1  1  0.75351400  0.66021400  0.66021200  1
  V  V2  1  0.49275600  0.97324900  0.97325100  1
  V  V3  1  0.99237200  0.02082900  0.02082600  1
  S  S4  1  0.24426100  0.82714700  0.82714500  1
  S  S5  1  0.74422300  0.16652800  0.16653100  1
  S  S6  1  0.26148000  0.83864600  0.31781300  1
  S  S7  1  0.26147700  0.31781200  0.83864600  1
  S  S8  1  0.76053000  0.15763400  0.67563000  1
  S  S9  1  0.76053000  0.67563200  0.15763300  1
loop_
 _atom_site_moment_label
 _atom_site_moment_crystalaxis_x
 _atom_site_moment_crystalaxis_y
 _atom_site_moment_crystalaxis_z
  Ba0  0.00063991  -0.00076738  -0.00000016
  Ba1  0.00063991  -0.00076738  -0.00000016
  V2  0.46201424  -0.55404850  -0.00011657
  V3  0.46201424  -0.55404850  -0.00011657
  S4  -0.02815599  0.03376473  0.00000710
  S5  -0.02815599  0.03376473  0.00000710
  S6  -0.01919727  0.02302141  0.00000484
  S7  -0.01919727  0.02302141  0.00000484
  S8  -0.01855736  0.02225403  0.00000468
  S9  -0.01855736  0.02225403  0.00000468
