# generated using pymatgen
data_Cs2Mn3Te4
_symmetry_space_group_name_H-M   'P 1'
_cell_length_a   6.35161234
_cell_length_b   10.59540467
_cell_length_c   10.59559107
_cell_angle_alpha   73.90691206
_cell_angle_beta   107.49496337
_cell_angle_gamma   107.49626881
_symmetry_Int_Tables_number   1
_chemical_formula_structural   Cs2Mn3Te4
_chemical_formula_sum   'Cs4 Mn6 Te8'
_cell_volume   634.78743054
_cell_formula_units_Z   2
loop_
 _symmetry_equiv_pos_site_id
 _symmetry_equiv_pos_as_xyz
  1  'x, y, z'
loop_
 _atom_site_type_symbol
 _atom_site_label
 _atom_site_symmetry_multiplicity
 _atom_site_fract_x
 _atom_site_fract_y
 _atom_site_fract_z
 _atom_site_occupancy
  Cs  Cs0  1  0.23666000  0.12299200  0.87706500  1
  Cs  Cs1  1  0.73664600  0.37704700  0.62298400  1
  Cs  Cs2  1  0.26333600  0.62293500  0.37700500  1
  Cs  Cs3  1  0.76335000  0.87701200  0.12295400  1
  Mn  Mn4  1  0.74999100  0.24963300  0.25035700  1
  Mn  Mn5  1  0.24998900  0.49984800  0.00014900  1
  Mn  Mn6  1  0.24999100  0.99987800  0.50012300  1
  Mn  Mn7  1  0.25000400  0.75036200  0.74964300  1
  Mn  Mn8  1  0.75001100  0.50014600  0.99985200  1
  Mn  Mn9  1  0.75000900  0.00013000  0.49987400  1
  Te  Te10  1  0.08906000  0.21971100  0.47689000  1
  Te  Te11  1  0.89251600  0.28020900  0.02312500  1
  Te  Te12  1  0.41095100  0.02311500  0.28028900  1
  Te  Te13  1  0.60748100  0.47686200  0.21978800  1
  Te  Te14  1  0.91098400  0.78029000  0.52310500  1
  Te  Te15  1  0.10750100  0.71980000  0.97687800  1
  Te  Te16  1  0.58902200  0.97689200  0.71971800  1
  Te  Te17  1  0.39249800  0.52313900  0.78020000  1
loop_
 _atom_site_moment_label
 _atom_site_moment_crystalaxis_x
 _atom_site_moment_crystalaxis_y
 _atom_site_moment_crystalaxis_z
  Mn4  -2.46290127  0.06738381  -4.06270925
  Mn5  -2.38106724  0.06514487  -3.92771891
  Mn6  -2.37864253  0.06507853  -3.92371919
  Mn7  2.46290127  -0.06738381  4.06270925
  Mn8  2.38106724  -0.06514487  3.92771891
  Mn9  2.37924871  -0.06509511  3.92471912
  Te10  -0.00424325  0.00011609  -0.00699950
  Te11  -0.00424325  0.00011609  -0.00699950
  Te12  -0.00424325  0.00011609  -0.00699950
  Te13  -0.00424325  0.00011609  -0.00699950
  Te14  0.00424325  -0.00011609  0.00699950
  Te15  0.00424325  -0.00011609  0.00699950
  Te16  0.00424325  -0.00011609  0.00699950
  Te17  0.00424325  -0.00011609  0.00699950
