# generated using pymatgen
data_VSe
_symmetry_space_group_name_H-M   'P 1'
_cell_length_a   3.43038001
_cell_length_b   6.03162107
_cell_length_c   6.81700108
_cell_angle_alpha   90.01642005
_cell_angle_beta   89.99501491
_cell_angle_gamma   90.00413280
_symmetry_Int_Tables_number   1
_chemical_formula_structural   VSe
_chemical_formula_sum   'V4 Se4'
_cell_volume   141.04887404
_cell_formula_units_Z   4
loop_
 _symmetry_equiv_pos_site_id
 _symmetry_equiv_pos_as_xyz
  1  'x, y, z'
loop_
 _atom_site_type_symbol
 _atom_site_label
 _atom_site_symmetry_multiplicity
 _atom_site_fract_x
 _atom_site_fract_y
 _atom_site_fract_z
 _atom_site_occupancy
  V  V0  1  0.49998400  0.83546600  0.24999100  1
  V  V1  1  0.50001600  0.16448800  0.75000800  1
  V  V2  1  0.99998600  0.33550800  0.24999500  1
  V  V3  1  0.00001100  0.66456600  0.75000600  1
  Se  Se4  1  0.00000000  0.99992600  0.99995900  1
  Se  Se5  1  0.50000200  0.50005900  0.99988500  1
  Se  Se6  1  0.00000100  0.99992700  0.50003900  1
  Se  Se7  1  0.49999900  0.50005900  0.50011600  1
loop_
 _atom_site_moment_label
 _atom_site_moment_crystalaxis_x
 _atom_site_moment_crystalaxis_y
 _atom_site_moment_crystalaxis_z
  V0  0.00009229  -0.00030538  -2.13300007
  V1  0.00009186  -0.00030395  -2.12300007
  V2  -0.00009186  0.00030395  2.12300007
  V3  -0.00009221  0.00030510  2.13100007
  Se4  -0.00000151  0.00000501  0.03500000
  Se5  0.00000151  -0.00000501  -0.03500000
  Se6  -0.00000151  0.00000501  0.03500000
  Se7  0.00000151  -0.00000501  -0.03500000
