# generated using pymatgen
data_CsMnAs
_symmetry_space_group_name_H-M   'P 1'
_cell_length_a   4.24305500
_cell_length_b   4.24309800
_cell_length_c   24.20447200
_cell_angle_alpha   90.00015440
_cell_angle_beta   89.99994459
_cell_angle_gamma   90.00008102
_symmetry_Int_Tables_number   1
_chemical_formula_structural   CsMnAs
_chemical_formula_sum   'Cs4 Mn4 As4'
_cell_volume   435.77000860
_cell_formula_units_Z   4
loop_
 _symmetry_equiv_pos_site_id
 _symmetry_equiv_pos_as_xyz
  1  'x, y, z'
loop_
 _atom_site_type_symbol
 _atom_site_label
 _atom_site_symmetry_multiplicity
 _atom_site_fract_x
 _atom_site_fract_y
 _atom_site_fract_z
 _atom_site_occupancy
  Cs  Cs0  1  0.50000000  0.00000000  0.36127000  1
  Cs  Cs1  1  0.50000000  0.00000000  0.86128400  1
  Cs  Cs2  1  0.00000100  0.50000100  0.13871800  1
  Cs  Cs3  1  0.00000000  0.49999900  0.63872800  1
  Mn  Mn4  1  0.50000000  0.50000000  0.49999900  1
  Mn  Mn5  1  0.00000100  0.00000000  0.00000100  1
  Mn  Mn6  1  0.50000000  0.49999900  0.00000100  1
  Mn  Mn7  1  0.99999900  0.00000000  0.49999900  1
  As  As8  1  0.50000000  0.00000000  0.05745600  1
  As  As9  1  0.49999900  0.00000100  0.55744800  1
  As  As10  1  0.00000000  0.49999900  0.44255100  1
  As  As11  1  0.00000100  0.50000000  0.94254600  1
loop_
 _atom_site_moment_label
 _atom_site_moment_crystalaxis_x
 _atom_site_moment_crystalaxis_y
 _atom_site_moment_crystalaxis_z
  Mn4  0.00000178  -0.00000459  -3.58400000
  Mn5  0.00000177  -0.00000458  -3.57800000
  Mn6  -0.00000177  0.00000458  3.57800000
  Mn7  -0.00000178  0.00000459  3.58300000
