# generated using pymatgen
data_CsMnSb
_symmetry_space_group_name_H-M   'P 1'
_cell_length_a   4.73731700
_cell_length_b   4.73732200
_cell_length_c   18.52694200
_cell_angle_alpha   89.99981047
_cell_angle_beta   90.00002446
_cell_angle_gamma   89.99995162
_symmetry_Int_Tables_number   1
_chemical_formula_structural   CsMnSb
_chemical_formula_sum   'Cs4 Mn4 Sb4'
_cell_volume   415.78526448
_cell_formula_units_Z   4
loop_
 _symmetry_equiv_pos_site_id
 _symmetry_equiv_pos_as_xyz
  1  'x, y, z'
loop_
 _atom_site_type_symbol
 _atom_site_label
 _atom_site_symmetry_multiplicity
 _atom_site_fract_x
 _atom_site_fract_y
 _atom_site_fract_z
 _atom_site_occupancy
  Cs  Cs0  1  0.50000000  0.00000000  0.32893300  1
  Cs  Cs1  1  0.50000000  0.00000000  0.82893300  1
  Cs  Cs2  1  0.00000000  0.50000000  0.17106700  1
  Cs  Cs3  1  0.00000000  0.50000000  0.67106700  1
  Mn  Mn4  1  0.50000000  0.50000000  0.50000000  1
  Mn  Mn5  1  0.00000000  0.00000000  0.00000000  1
  Mn  Mn6  1  0.50000000  0.50000000  0.00000000  1
  Mn  Mn7  1  0.00000000  0.00000000  0.50000000  1
  Sb  Sb8  1  0.50000000  0.00000000  0.07898900  1
  Sb  Sb9  1  0.50000000  0.00000000  0.57898900  1
  Sb  Sb10  1  0.00000000  0.50000000  0.42101100  1
  Sb  Sb11  1  0.00000000  0.50000000  0.92101100  1
loop_
 _atom_site_moment_label
 _atom_site_moment_crystalaxis_x
 _atom_site_moment_crystalaxis_y
 _atom_site_moment_crystalaxis_z
  Mn4  -0.00000084  0.00000633  -3.91100000
  Mn5  -0.00000084  0.00000633  -3.91100000
  Mn6  0.00000084  -0.00000633  3.91100000
  Mn7  0.00000084  -0.00000633  3.91100000
