# generated using pymatgen
data_LiMnP
_symmetry_space_group_name_H-M   'P 1'
_cell_length_a   3.98532000
_cell_length_b   3.98533200
_cell_length_c   11.73444100
_cell_angle_alpha   90.00000002
_cell_angle_beta   89.99925024
_cell_angle_gamma   90.00506059
_symmetry_Int_Tables_number   1
_chemical_formula_structural   LiMnP
_chemical_formula_sum   'Li4 Mn4 P4'
_cell_volume   186.37605286
_cell_formula_units_Z   4
loop_
 _symmetry_equiv_pos_site_id
 _symmetry_equiv_pos_as_xyz
  1  'x, y, z'
loop_
 _atom_site_type_symbol
 _atom_site_label
 _atom_site_symmetry_multiplicity
 _atom_site_fract_x
 _atom_site_fract_y
 _atom_site_fract_z
 _atom_site_occupancy
  Li  Li0  1  0.50000200  0.50000100  0.24999900  1
  Li  Li1  1  0.50000100  0.49999900  0.75000000  1
  Li  Li2  1  0.99999900  0.99999800  0.24999400  1
  Li  Li3  1  0.99999900  0.99999800  0.75000600  1
  Mn  Mn4  1  0.50000200  0.50000000  0.49999900  1
  Mn  Mn5  1  0.99999700  0.00000200  0.00000100  1
  Mn  Mn6  1  0.50000000  0.49999900  0.00000000  1
  Mn  Mn7  1  0.99999800  0.00000300  0.50000100  1
  P  P8  1  0.50000500  0.00000200  0.38780900  1
  P  P9  1  0.50000200  0.00000000  0.88777600  1
  P  P10  1  0.99999600  0.49999900  0.11222400  1
  P  P11  1  0.00000000  0.50000000  0.61219000  1
loop_
 _atom_site_moment_label
 _atom_site_moment_crystalaxis_x
 _atom_site_moment_crystalaxis_y
 _atom_site_moment_crystalaxis_z
  Mn4  0.00002166  0.00000000  -3.30100000
  Mn5  0.00002167  0.00000000  -3.30300000
  Mn6  -0.00002167  0.00000000  3.30300000
  Mn7  -0.00002168  0.00000000  3.30400000
  P8  0.00000000  0.00000000  -0.00100000
  P11  0.00000000  0.00000000  -0.00100000
