# generated using pymatgen
data_Sr(MnP)2
_symmetry_space_group_name_H-M   'P 1'
_cell_length_a   4.04680074
_cell_length_b   7.03227705
_cell_length_c   4.04534970
_cell_angle_alpha   90.01363729
_cell_angle_beta   120.09229891
_cell_angle_gamma   89.98891115
_symmetry_Int_Tables_number   1
_chemical_formula_structural   Sr(MnP)2
_chemical_formula_sum   'Sr1 Mn2 P2'
_cell_volume   99.60698786
_cell_formula_units_Z   1
loop_
 _symmetry_equiv_pos_site_id
 _symmetry_equiv_pos_as_xyz
  1  'x, y, z'
loop_
 _atom_site_type_symbol
 _atom_site_label
 _atom_site_symmetry_multiplicity
 _atom_site_fract_x
 _atom_site_fract_y
 _atom_site_fract_z
 _atom_site_occupancy
  Sr  Sr0  1  0.00000700  0.00015500  0.00000900  1
  Mn  Mn1  1  0.33354400  0.38790500  0.66619200  1
  Mn  Mn2  1  0.66645000  0.61205900  0.33379800  1
  P  P3  1  0.66659900  0.28675200  0.33353800  1
  P  P4  1  0.33339900  0.71312900  0.66646300  1
loop_
 _atom_site_moment_label
 _atom_site_moment_crystalaxis_x
 _atom_site_moment_crystalaxis_y
 _atom_site_moment_crystalaxis_z
  Mn1  0.00015327  -3.30400008  -0.00030854
  Mn2  -0.00015327  3.30400008  0.00030854
  P3  -0.00000111  0.02400000  0.00000224
  P4  0.00000111  -0.02400000  -0.00000224
