# generated using pymatgen
data_V3As2
_symmetry_space_group_name_H-M   'P 1'
_cell_length_a   3.30354100
_cell_length_b   13.34697081
_cell_length_c   13.34516839
_cell_angle_alpha   90.01366354
_cell_angle_beta   90.00005029
_cell_angle_gamma   89.99999141
_symmetry_Int_Tables_number   1
_chemical_formula_structural   V3As2
_chemical_formula_sum   'V24 As16'
_cell_volume   588.41868844
_cell_formula_units_Z   8
loop_
 _symmetry_equiv_pos_site_id
 _symmetry_equiv_pos_as_xyz
  1  'x, y, z'
loop_
 _atom_site_type_symbol
 _atom_site_label
 _atom_site_symmetry_multiplicity
 _atom_site_fract_x
 _atom_site_fract_y
 _atom_site_fract_z
 _atom_site_occupancy
  V  V0  1  0.49999700  0.49992300  0.99999700  1
  V  V1  1  0.50000000  0.00007900  0.50002600  1
  V  V2  1  0.49999700  0.24998700  0.75001400  1
  V  V3  1  0.50000100  0.75000200  0.24998400  1
  V  V4  1  0.50000000  0.24999100  0.24998100  1
  V  V5  1  0.50000400  0.75002700  0.75000800  1
  V  V6  1  0.50000000  0.15512800  0.97669300  1
  V  V7  1  0.49999900  0.65503100  0.47686900  1
  V  V8  1  0.49999900  0.47673900  0.34497600  1
  V  V9  1  0.50000000  0.97682000  0.84493300  1
  V  V10  1  0.49999800  0.52315600  0.65501900  1
  V  V11  1  0.49999900  0.02327700  0.15507200  1
  V  V12  1  0.49999900  0.84494400  0.02315100  1
  V  V13  1  0.49999800  0.34489100  0.52328500  1
  V  V14  1  0.00000100  0.34152100  0.05668100  1
  V  V15  1  0.00000000  0.84164100  0.55672000  1
  V  V16  1  0.99999900  0.55660800  0.15836700  1
  V  V17  1  0.00000100  0.05680000  0.65845300  1
  V  V18  1  0.00000200  0.44322700  0.84157800  1
  V  V19  1  0.00000100  0.94337700  0.34159200  1
  V  V20  1  0.00000100  0.65839400  0.94327300  1
  V  V21  1  0.00000000  0.15844700  0.44333200  1
  V  V22  1  0.00000100  0.49987200  0.50006800  1
  V  V23  1  0.00000400  0.00011200  0.99991800  1
  As  As24  1  0.50000100  0.32739900  0.91773100  1
  As  As25  1  0.50000000  0.82755800  0.41781000  1
  As  As26  1  0.50000000  0.41768700  0.17247200  1
  As  As27  1  0.49999900  0.91790200  0.67251600  1
  As  As28  1  0.50000000  0.58216200  0.82749400  1
  As  As29  1  0.50000000  0.08227000  0.32752200  1
  As  As30  1  0.49999900  0.67250000  0.08214800  1
  As  As31  1  0.50000100  0.17254900  0.58230200  1
  As  As32  1  0.99999900  0.16267400  0.12293100  1
  As  As33  1  0.99999900  0.66255500  0.62300200  1
  As  As34  1  0.99999900  0.62289900  0.33744500  1
  As  As35  1  0.00000000  0.12302200  0.83735600  1
  As  As36  1  0.99999900  0.37696500  0.66263900  1
  As  As37  1  0.00000000  0.87711200  0.16256100  1
  As  As38  1  0.00000000  0.83742200  0.87700500  1
  As  As39  1  0.99999900  0.33733400  0.37707000  1
loop_
 _atom_site_moment_label
 _atom_site_moment_crystalaxis_x
 _atom_site_moment_crystalaxis_y
 _atom_site_moment_crystalaxis_z
  V0  0.07300000  0.00000000  0.00000003
  V1  0.07300000  0.00000000  0.00000003
  V2  1.29400000  0.00000000  0.00000055
  V3  1.31000000  0.00000000  0.00000056
  V4  1.30600000  0.00000000  0.00000056
  V5  1.31300000  0.00000000  0.00000056
  V6  0.32300000  0.00000000  0.00000014
  V7  0.31700000  0.00000000  0.00000014
  V8  0.32400000  0.00000000  0.00000014
  V9  0.32100000  0.00000000  0.00000014
  V10  0.32400000  0.00000000  0.00000014
  V11  0.32100000  0.00000000  0.00000014
  V12  0.31800000  0.00000000  0.00000014
  V13  0.32300000  0.00000000  0.00000014
  V14  -0.18600000  0.00000000  -0.00000008
  V15  -0.19300000  0.00000000  -0.00000008
  V16  -0.18800000  0.00000000  -0.00000008
  V17  -0.18800000  0.00000000  -0.00000008
  V18  -0.18800000  0.00000000  -0.00000008
  V19  -0.19000000  0.00000000  -0.00000008
  V20  -0.18900000  0.00000000  -0.00000008
  V21  -0.18800000  0.00000000  -0.00000008
  V22  -0.16700000  0.00000000  -0.00000007
  V23  -0.16700000  0.00000000  -0.00000007
  As24  -0.00700000  0.00000000  0.00000000
  As25  -0.00700000  0.00000000  0.00000000
  As26  -0.00700000  0.00000000  0.00000000
  As27  -0.00700000  0.00000000  0.00000000
  As28  -0.00700000  0.00000000  0.00000000
  As29  -0.00700000  0.00000000  0.00000000
  As30  -0.00700000  0.00000000  0.00000000
  As31  -0.00700000  0.00000000  0.00000000
  As32  -0.02200000  0.00000000  0.00000000
  As33  -0.02300000  0.00000000  0.00000000
  As34  -0.02300000  0.00000000  0.00000000
  As35  -0.02200000  0.00000000  0.00000000
  As36  -0.02300000  0.00000000  0.00000000
  As37  -0.02300000  0.00000000  0.00000000
  As38  -0.02300000  0.00000000  0.00000000
  As39  -0.02300000  0.00000000  0.00000000
