# generated using pymatgen
data_CsFeS2
_symmetry_space_group_name_H-M   'P 1'
_cell_length_a   5.31555274
_cell_length_b   7.29151059
_cell_length_c   7.70891340
_cell_angle_alpha   118.22714410
_cell_angle_beta   110.16054181
_cell_angle_gamma   90.00909080
_symmetry_Int_Tables_number   1
_chemical_formula_structural   CsFeS2
_chemical_formula_sum   'Cs2 Fe2 S4'
_cell_volume   242.26754643
_cell_formula_units_Z   2
loop_
 _symmetry_equiv_pos_site_id
 _symmetry_equiv_pos_as_xyz
  1  'x, y, z'
loop_
 _atom_site_type_symbol
 _atom_site_label
 _atom_site_symmetry_multiplicity
 _atom_site_fract_x
 _atom_site_fract_y
 _atom_site_fract_z
 _atom_site_occupancy
  Cs  Cs0  1  0.82892100  0.32905900  0.65799700  1
  Cs  Cs1  1  0.17108900  0.67094000  0.34200300  1
  Fe  Fe2  1  0.25116000  0.00002700  0.00001200  1
  Fe  Fe3  1  0.74879900  0.99997300  0.99998800  1
  S  S4  1  0.50007000  0.24220200  0.99997700  1
  S  S5  1  0.49992900  0.75779100  0.00001800  1
  S  S6  1  0.14185900  0.14192500  0.28374500  1
  S  S7  1  0.85817300  0.85808200  0.71625800  1
loop_
 _atom_site_moment_label
 _atom_site_moment_crystalaxis_x
 _atom_site_moment_crystalaxis_y
 _atom_site_moment_crystalaxis_z
  Fe2  0.06089069  0.02091039  -2.78355709
  Fe3  -0.06086906  -0.02090296  2.78256826
