# generated using pymatgen
data_Ba(CrAs)2
_symmetry_space_group_name_H-M   'P 1'
_cell_length_a   4.09427956
_cell_length_b   4.09428319
_cell_length_c   13.20614298
_cell_angle_alpha   90.00002686
_cell_angle_beta   89.99989549
_cell_angle_gamma   89.99990334
_symmetry_Int_Tables_number   1
_chemical_formula_structural   Ba(CrAs)2
_chemical_formula_sum   'Ba2 Cr4 As4'
_cell_volume   221.37642312
_cell_formula_units_Z   2
loop_
 _symmetry_equiv_pos_site_id
 _symmetry_equiv_pos_as_xyz
  1  'x, y, z'
loop_
 _atom_site_type_symbol
 _atom_site_label
 _atom_site_symmetry_multiplicity
 _atom_site_fract_x
 _atom_site_fract_y
 _atom_site_fract_z
 _atom_site_occupancy
  Ba  Ba0  1  0.99999900  0.00000000  0.00005300  1
  Ba  Ba1  1  0.50000000  0.50000100  0.49994600  1
  Cr  Cr2  1  0.50000000  0.99999900  0.75000000  1
  Cr  Cr3  1  0.50000000  0.99999900  0.25000000  1
  Cr  Cr4  1  0.00000100  0.49999900  0.25000000  1
  Cr  Cr5  1  0.99999900  0.50000100  0.75000000  1
  As  As6  1  0.00000100  0.00000100  0.35840300  1
  As  As7  1  0.50000000  0.50000000  0.85850500  1
  As  As8  1  0.49999900  0.50000000  0.14159700  1
  As  As9  1  0.00000000  0.00000000  0.64149500  1
loop_
 _atom_site_moment_label
 _atom_site_moment_crystalaxis_x
 _atom_site_moment_crystalaxis_y
 _atom_site_moment_crystalaxis_z
  Ba0  0.00028992  0.00028992  -0.00091208
  Ba1  -0.00028992  -0.00028992  0.00091208
  Cr2  0.79555005  0.79554696  -2.50274737
  Cr3  0.79728959  0.79728649  -2.50821985
  Cr4  -0.79468028  -0.79467719  2.50001113
  Cr5  -0.79844928  -0.79844618  2.51186817
  As6  0.00028992  0.00028992  -0.00091208
  As7  -0.00028992  -0.00028992  0.00091208
  As8  0.00028992  0.00028992  -0.00091208
  As9  -0.00028992  -0.00028992  0.00091208
