# generated using pymatgen
data_Cs2MnS2
_symmetry_space_group_name_H-M   'P 1'
_cell_length_a   6.26847512
_cell_length_b   8.55246288
_cell_length_c   13.63589422
_cell_angle_alpha   81.75960034
_cell_angle_beta   76.71949143
_cell_angle_gamma   68.51390854
_symmetry_Int_Tables_number   1
_chemical_formula_structural   Cs2MnS2
_chemical_formula_sum   'Cs8 Mn4 S8'
_cell_volume   660.62384342
_cell_formula_units_Z   4
loop_
 _symmetry_equiv_pos_site_id
 _symmetry_equiv_pos_as_xyz
  1  'x, y, z'
loop_
 _atom_site_type_symbol
 _atom_site_label
 _atom_site_symmetry_multiplicity
 _atom_site_fract_x
 _atom_site_fract_y
 _atom_site_fract_z
 _atom_site_occupancy
  Cs  Cs0  1  0.14872200  0.60767900  0.09486600  1
  Cs  Cs1  1  0.14872000  0.10767800  0.59486500  1
  Cs  Cs2  1  0.85128000  0.39232200  0.90513400  1
  Cs  Cs3  1  0.85127800  0.89232200  0.40513500  1
  Cs  Cs4  1  0.64875100  0.44612300  0.25642600  1
  Cs  Cs5  1  0.64874600  0.94612400  0.75642500  1
  Cs  Cs6  1  0.35125400  0.55387700  0.74357300  1
  Cs  Cs7  1  0.35125000  0.05387700  0.24357400  1
  Mn  Mn8  1  0.25000800  0.49996200  0.50000800  1
  Mn  Mn9  1  0.74999200  0.00003800  0.99999300  1
  Mn  Mn10  1  0.25000900  0.99996200  0.00000800  1
  Mn  Mn11  1  0.74999100  0.50003800  0.49999200  1
  S  S12  1  0.40707100  0.22547500  0.96038800  1
  S  S13  1  0.40707100  0.72547500  0.46038800  1
  S  S14  1  0.59292900  0.77452400  0.03961200  1
  S  S15  1  0.59292900  0.27452500  0.53961100  1
  S  S16  1  0.90708600  0.55324300  0.63257200  1
  S  S17  1  0.90708600  0.05324300  0.13257200  1
  S  S18  1  0.09291300  0.44675700  0.36742800  1
  S  S19  1  0.09291500  0.94675700  0.86742900  1
loop_
 _atom_site_moment_label
 _atom_site_moment_crystalaxis_x
 _atom_site_moment_crystalaxis_y
 _atom_site_moment_crystalaxis_z
  Mn8  2.97687145  -1.97978536  -3.16127712
  Mn9  2.97687145  -1.97978536  -3.16127712
  Mn10  -2.97687145  1.97978536  3.16127712
  Mn11  -2.97687145  1.97978536  3.16127712
