# generated using pymatgen
data_CsCr5S8
_symmetry_space_group_name_H-M   'P 1'
_cell_length_a   3.51840954
_cell_length_b   10.87856642
_cell_length_c   14.33947765
_cell_angle_alpha   87.69833280
_cell_angle_beta   82.97171290
_cell_angle_gamma   80.68572936
_symmetry_Int_Tables_number   1
_chemical_formula_structural   CsCr5S8
_chemical_formula_sum   'Cs2 Cr10 S16'
_cell_volume   537.42494240
_cell_formula_units_Z   2
loop_
 _symmetry_equiv_pos_site_id
 _symmetry_equiv_pos_as_xyz
  1  'x, y, z'
loop_
 _atom_site_type_symbol
 _atom_site_label
 _atom_site_symmetry_multiplicity
 _atom_site_fract_x
 _atom_site_fract_y
 _atom_site_fract_z
 _atom_site_occupancy
  Cs  Cs0  1  0.50000100  0.24999900  0.75000200  1
  Cs  Cs1  1  0.50000400  0.75000300  0.25000100  1
  Cr  Cr2  1  0.99998600  0.49999900  0.50002500  1
  Cr  Cr3  1  0.66459500  0.33981800  0.33139700  1
  Cr  Cr4  1  0.33541000  0.66017000  0.66864900  1
  Cr  Cr5  1  0.70581100  0.62890500  0.95921100  1
  Cr  Cr6  1  0.29419200  0.37109000  0.04079600  1
  Cr  Cr7  1  0.00001900  0.99999400  0.99997500  1
  Cr  Cr8  1  0.66459600  0.83982600  0.83135100  1
  Cr  Cr9  1  0.33541200  0.16019600  0.16859300  1
  Cr  Cr10  1  0.70578600  0.12890800  0.45919900  1
  Cr  Cr11  1  0.29419000  0.87109100  0.54079400  1
  S  S12  1  0.42362800  0.15081900  0.00165500  1
  S  S13  1  0.42361400  0.65081100  0.50170900  1
  S  S14  1  0.57639100  0.84918500  0.99829400  1
  S  S15  1  0.57637200  0.34917800  0.49834100  1
  S  S16  1  0.90934800  0.51380300  0.66789000  1
  S  S17  1  0.90935200  0.01383600  0.16783000  1
  S  S18  1  0.09064700  0.48617900  0.33216600  1
  S  S19  1  0.09065900  0.98619200  0.83211400  1
  S  S20  1  0.82691000  0.41264900  0.93362500  1
  S  S21  1  0.82691200  0.91264300  0.43361900  1
  S  S22  1  0.17308300  0.58735300  0.06638800  1
  S  S23  1  0.17307800  0.08735400  0.56637300  1
  S  S24  1  0.75691100  0.32486700  0.16129600  1
  S  S25  1  0.75693400  0.82484300  0.66127800  1
  S  S26  1  0.24307700  0.67514700  0.83872500  1
  S  S27  1  0.24308200  0.17514400  0.33869900  1
loop_
 _atom_site_moment_label
 _atom_site_moment_crystalaxis_x
 _atom_site_moment_crystalaxis_y
 _atom_site_moment_crystalaxis_z
  Cr2  1.08104792  -1.69434992  -2.18789416
  Cr3  1.05574680  -1.65469493  -2.13668812
  Cr4  1.05574680  -1.65469493  -2.13668812
  Cr5  1.06686396  -1.67211909  -2.15918774
  Cr6  1.06801401  -1.67392159  -2.16151529
  Cr7  -1.08143127  1.69495076  2.18867000
  Cr8  -1.05574680  1.65469493  2.13668812
  Cr9  -1.05536345  1.65409409  2.13591227
  Cr10  -1.06763066  1.67332076  2.16073944
  Cr11  -1.06763066  1.67332076  2.16073944
  S12  0.02185097  -0.03424750  -0.04422339
  S13  -0.02185097  0.03424750  0.04422339
  S14  0.02185097  -0.03424750  -0.04422339
  S15  -0.02185097  0.03424750  0.04422339
  S16  -0.03258478  0.05107083  0.06594716
  S17  0.03258478  -0.05107083  -0.06594716
  S18  -0.03258478  0.05107083  0.06594716
  S19  0.03258478  -0.05107083  -0.06594716
  S20  -0.03871838  0.06068416  0.07836075
  S21  0.03871838  -0.06068416  -0.07836075
  S22  -0.03871838  0.06068416  0.07836075
  S23  0.03871838  -0.06068416  -0.07836075
  S24  -0.00306680  0.00480667  0.00620679
  S25  0.00306680  -0.00480667  -0.00620679
  S26  -0.00306680  0.00480667  0.00620679
  S27  0.00306680  -0.00480667  -0.00620679
