# generated using pymatgen
data_RbFeS2
_symmetry_space_group_name_H-M   'P 1'
_cell_length_a   5.32254331
_cell_length_b   7.05530779
_cell_length_c   7.05530497
_cell_angle_alpha   117.42108029
_cell_angle_beta   100.80765017
_cell_angle_gamma   100.80773535
_symmetry_Int_Tables_number   1
_chemical_formula_structural   RbFeS2
_chemical_formula_sum   'Rb2 Fe2 S4'
_cell_volume   219.31184144
_cell_formula_units_Z   2
loop_
 _symmetry_equiv_pos_site_id
 _symmetry_equiv_pos_as_xyz
  1  'x, y, z'
loop_
 _atom_site_type_symbol
 _atom_site_label
 _atom_site_symmetry_multiplicity
 _atom_site_fract_x
 _atom_site_fract_y
 _atom_site_fract_z
 _atom_site_occupancy
  Rb  Rb0  1  0.25000000  0.35372500  0.64627500  1
  Rb  Rb1  1  0.75000000  0.64626900  0.35373000  1
  Fe  Fe2  1  0.25000000  0.99869600  0.00130500  1
  Fe  Fe3  1  0.75000100  0.00130900  0.99869200  1
  S  S4  1  0.59438500  0.08141500  0.28710200  1
  S  S5  1  0.90561500  0.71289800  0.91858500  1
  S  S6  1  0.09437600  0.28710800  0.08141900  1
  S  S7  1  0.40562400  0.91858000  0.71289200  1
loop_
 _atom_site_moment_label
 _atom_site_moment_crystalaxis_x
 _atom_site_moment_crystalaxis_y
 _atom_site_moment_crystalaxis_z
  Rb0  -0.00000478  0.00000925  0.00100331
  Rb1  0.00000478  -0.00000925  -0.00100331
  Fe2  0.01342205  -0.02599749  -2.81929603
  Fe3  -0.01342205  0.02599749  2.81929603
  S4  -0.00000955  0.00001850  0.00200662
  S5  -0.00000955  0.00001850  0.00200662
  S6  0.00000955  -0.00001850  -0.00200662
  S7  0.00000955  -0.00001850  -0.00200662
