# generated using pymatgen
data_CrAs
_symmetry_space_group_name_H-M   'P 1'
_cell_length_a   3.80017220
_cell_length_b   3.79993092
_cell_length_c   5.25237500
_cell_angle_alpha   90.00200744
_cell_angle_beta   89.99595671
_cell_angle_gamma   119.96470537
_symmetry_Int_Tables_number   1
_chemical_formula_structural   CrAs
_chemical_formula_sum   'Cr2 As2'
_cell_volume   65.70821697
_cell_formula_units_Z   2
loop_
 _symmetry_equiv_pos_site_id
 _symmetry_equiv_pos_as_xyz
  1  'x, y, z'
loop_
 _atom_site_type_symbol
 _atom_site_label
 _atom_site_symmetry_multiplicity
 _atom_site_fract_x
 _atom_site_fract_y
 _atom_site_fract_z
 _atom_site_occupancy
  Cr  Cr0  1  0.00000000  0.00000000  0.50000000  1
  Cr  Cr1  1  0.00000000  0.00000000  0.00000000  1
  As  As2  1  0.33344100  0.66662600  0.24993100  1
  As  As3  1  0.66655900  0.33337400  0.75006900  1
loop_
 _atom_site_moment_label
 _atom_site_moment_crystalaxis_x
 _atom_site_moment_crystalaxis_y
 _atom_site_moment_crystalaxis_z
  Cr0  0.00009013  0.00001282  -2.54200000
  Cr1  -0.00009013  -0.00001282  2.54200000
