# generated using pymatgen
data_CrTe2
_symmetry_space_group_name_H-M   'P 1'
_cell_length_a   3.83038637
_cell_length_b   3.83119542
_cell_length_c   6.18248644
_cell_angle_alpha   90.02597728
_cell_angle_beta   89.95677721
_cell_angle_gamma   119.96704684
_symmetry_Int_Tables_number   1
_chemical_formula_structural   CrTe2
_chemical_formula_sum   'Cr1 Te2'
_cell_volume   78.59857682
_cell_formula_units_Z   1
loop_
 _symmetry_equiv_pos_site_id
 _symmetry_equiv_pos_as_xyz
  1  'x, y, z'
loop_
 _atom_site_type_symbol
 _atom_site_label
 _atom_site_symmetry_multiplicity
 _atom_site_fract_x
 _atom_site_fract_y
 _atom_site_fract_z
 _atom_site_occupancy
  Cr  Cr0  1  0.00000000  0.00000000  0.50000000  1
  Te  Te1  1  0.66665700  0.33339600  0.24911000  1
  Te  Te2  1  0.33334300  0.66660400  0.75089000  1
loop_
 _atom_site_moment_label
 _atom_site_moment_crystalaxis_x
 _atom_site_moment_crystalaxis_y
 _atom_site_moment_crystalaxis_z
  Cr0  -0.00096432  0.00014013  2.75400059
  Te1  0.00006338  -0.00000921  -0.18100004
  Te2  0.00006338  -0.00000921  -0.18100004
