# generated using pymatgen
data_Li(Fe3Ge2)2
_symmetry_space_group_name_H-M   'P 1'
_cell_length_a   4.99866456
_cell_length_b   4.99823126
_cell_length_c   7.19257285
_cell_angle_alpha   90.00694710
_cell_angle_beta   69.66426123
_cell_angle_gamma   120.00712757
_symmetry_Int_Tables_number   1
_chemical_formula_structural   Li(Fe3Ge2)2
_chemical_formula_sum   'Li1 Fe6 Ge4'
_cell_volume   142.53991034
_cell_formula_units_Z   1
loop_
 _symmetry_equiv_pos_site_id
 _symmetry_equiv_pos_as_xyz
  1  'x, y, z'
loop_
 _atom_site_type_symbol
 _atom_site_label
 _atom_site_symmetry_multiplicity
 _atom_site_fract_x
 _atom_site_fract_y
 _atom_site_fract_z
 _atom_site_occupancy
  Li  Li0  1  0.00000000  0.00000100  0.99999800  1
  Fe  Fe1  1  0.70609100  0.60059400  0.69346900  1
  Fe  Fe2  1  0.70603300  0.10548400  0.69350000  1
  Fe  Fe3  1  0.20115500  0.60058500  0.69353300  1
  Fe  Fe4  1  0.79882700  0.39943600  0.30643900  1
  Fe  Fe5  1  0.29395500  0.89452300  0.30650900  1
  Fe  Fe6  1  0.29398300  0.39945600  0.30653800  1
  Ge  Ge7  1  0.25428000  0.12711200  0.61862100  1
  Ge  Ge8  1  0.74566400  0.87281200  0.38140300  1
  Ge  Ge9  1  0.66614200  0.33306400  0.00087300  1
  Ge  Ge10  1  0.33386900  0.66693300  0.99911700  1
loop_
 _atom_site_moment_label
 _atom_site_moment_crystalaxis_x
 _atom_site_moment_crystalaxis_y
 _atom_site_moment_crystalaxis_z
  Fe1  -0.02096292  -0.01060153  -1.93764516
  Fe2  -0.02083358  -0.01053612  -1.92569054
  Fe3  -0.02090903  -0.01057427  -1.93266407
  Fe4  0.02089825  0.01056882  1.93166785
  Fe5  0.02081203  0.01052522  1.92369810
  Fe6  0.02088747  0.01056337  1.93067163
  Ge7  0.00048500  0.00024528  0.04482984
  Ge8  -0.00047423  -0.00023983  -0.04383362
  Ge9  -0.00006467  -0.00003270  -0.00597731
  Ge10  0.00006467  0.00003270  0.00597731
