# generated using pymatgen
data_CrSe
_symmetry_space_group_name_H-M   'P 1'
_cell_length_a   3.81097374
_cell_length_b   3.48149560
_cell_length_c   12.76287400
_cell_angle_alpha   89.94650518
_cell_angle_beta   89.93123045
_cell_angle_gamma   89.98778471
_symmetry_Int_Tables_number   1
_chemical_formula_structural   CrSe
_chemical_formula_sum   'Cr4 Se4'
_cell_volume   169.33618727
_cell_formula_units_Z   4
loop_
 _symmetry_equiv_pos_site_id
 _symmetry_equiv_pos_as_xyz
  1  'x, y, z'
loop_
 _atom_site_type_symbol
 _atom_site_label
 _atom_site_symmetry_multiplicity
 _atom_site_fract_x
 _atom_site_fract_y
 _atom_site_fract_z
 _atom_site_occupancy
  Cr  Cr0  1  0.00005500  0.99987900  0.49505600  1
  Cr  Cr1  1  0.49996600  0.50015400  0.00494100  1
  Cr  Cr2  1  0.00001100  0.99996700  0.99473700  1
  Cr  Cr3  1  0.49997400  0.49999900  0.50529500  1
  Se  Se4  1  0.99946400  0.49947400  0.12793900  1
  Se  Se5  1  0.99946900  0.49936800  0.62827200  1
  Se  Se6  1  0.50058700  0.00050600  0.37205000  1
  Se  Se7  1  0.50047400  0.00065300  0.87170900  1
loop_
 _atom_site_moment_label
 _atom_site_moment_crystalaxis_x
 _atom_site_moment_crystalaxis_y
 _atom_site_moment_crystalaxis_z
  Cr0  0.00115307  0.00069343  -1.96100157
  Cr1  0.00115542  0.00069485  -1.96500157
  Cr2  -0.00115542  -0.00069485  1.96500157
  Cr3  -0.00115660  -0.00069556  1.96700157
  Se4  0.00001588  0.00000955  -0.02700002
  Se5  -0.00001588  -0.00000955  0.02700002
  Se6  0.00001588  0.00000955  -0.02700002
  Se7  -0.00001588  -0.00000955  0.02700002
