# generated using pymatgen
data_KFeP
_symmetry_space_group_name_H-M   'P 1'
_cell_length_a   6.50512148
_cell_length_b   6.51152560
_cell_length_c   7.41293573
_cell_angle_alpha   90.03272768
_cell_angle_beta   90.01767011
_cell_angle_gamma   68.99645090
_symmetry_Int_Tables_number   1
_chemical_formula_structural   KFeP
_chemical_formula_sum   'K4 Fe4 P4'
_cell_volume   293.13639012
_cell_formula_units_Z   4
loop_
 _symmetry_equiv_pos_site_id
 _symmetry_equiv_pos_as_xyz
  1  'x, y, z'
loop_
 _atom_site_type_symbol
 _atom_site_label
 _atom_site_symmetry_multiplicity
 _atom_site_fract_x
 _atom_site_fract_y
 _atom_site_fract_z
 _atom_site_occupancy
  K  K0  1  0.05766600  0.97438300  0.62044200  1
  K  K1  1  0.44466700  0.35524400  0.62910900  1
  K  K2  1  0.93945800  0.86156000  0.11974600  1
  K  K3  1  0.55750500  0.47634000  0.12857600  1
  Fe  Fe4  1  0.62563100  0.78900600  0.50021000  1
  Fe  Fe5  1  0.87425400  0.54344300  0.75020300  1
  Fe  Fe6  1  0.37293300  0.04254700  0.00019500  1
  Fe  Fe7  1  0.12753600  0.29119000  0.25026300  1
  P  P8  1  0.92337300  0.49659600  0.45766200  1
  P  P9  1  0.57655600  0.83632400  0.79291100  1
  P  P10  1  0.07951500  0.33920100  0.95778800  1
  P  P11  1  0.42090600  0.99416500  0.29289500  1
loop_
 _atom_site_moment_label
 _atom_site_moment_crystalaxis_x
 _atom_site_moment_crystalaxis_y
 _atom_site_moment_crystalaxis_z
  K0  0.00186540  0.00329334  0.00250651
  K1  0.00186540  0.00329334  0.00250651
  K2  -0.00186540  -0.00329334  -0.00250651
  K3  -0.00186540  -0.00329334  -0.00250651
  Fe4  -0.67788662  -1.19680025  -0.91086559
  Fe5  -0.67863278  -1.19811759  -0.91186820
  Fe6  0.67825970  1.19745892  0.91136689
  Fe7  0.67825970  1.19745892  0.91136689
  P8  0.00447696  0.00790402  0.00601562
  P9  0.00447696  0.00790402  0.00601562
  P10  -0.00485004  -0.00856269  -0.00651692
  P11  -0.00485004  -0.00856269  -0.00651692
