# generated using pymatgen
data_LiMn9Se10
_symmetry_space_group_name_H-M   'P 1'
_cell_length_a   6.58925689
_cell_length_b   7.62069892
_cell_length_c   8.50212808
_cell_angle_alpha   102.63951937
_cell_angle_beta   97.51559226
_cell_angle_gamma   106.83280805
_symmetry_Int_Tables_number   1
_chemical_formula_structural   LiMn9Se10
_chemical_formula_sum   'Li1 Mn9 Se10'
_cell_volume   390.02528291
_cell_formula_units_Z   1
loop_
 _symmetry_equiv_pos_site_id
 _symmetry_equiv_pos_as_xyz
  1  'x, y, z'
loop_
 _atom_site_type_symbol
 _atom_site_label
 _atom_site_symmetry_multiplicity
 _atom_site_fract_x
 _atom_site_fract_y
 _atom_site_fract_z
 _atom_site_occupancy
  Li  Li0  1  0.00000100  0.50000300  0.00000100  1
  Mn  Mn1  1  0.80152400  0.59840600  0.59989700  1
  Mn  Mn2  1  0.19847600  0.40159300  0.40010200  1
  Mn  Mn3  1  0.59273400  0.19902100  0.19683400  1
  Mn  Mn4  1  0.40727700  0.80098000  0.80316900  1
  Mn  Mn5  1  0.00000000  0.00000100  0.00000000  1
  Mn  Mn6  1  0.59782100  0.69263200  0.19751500  1
  Mn  Mn7  1  0.40217400  0.30736700  0.80248300  1
  Mn  Mn8  1  0.19948100  0.89238000  0.39750400  1
  Mn  Mn9  1  0.80051800  0.10761800  0.60249600  1
  Se  Se10  1  0.69918700  0.65088600  0.89774600  1
  Se  Se11  1  0.30081200  0.34911400  0.10225500  1
  Se  Se12  1  0.49939800  0.24718400  0.50155600  1
  Se  Se13  1  0.50060100  0.75281500  0.49844300  1
  Se  Se14  1  0.69985800  0.14523100  0.89734900  1
  Se  Se15  1  0.30014100  0.85476900  0.10265100  1
  Se  Se16  1  0.10544500  0.44791400  0.69337500  1
  Se  Se17  1  0.89455400  0.55208600  0.30662500  1
  Se  Se18  1  0.89862300  0.04385000  0.29506300  1
  Se  Se19  1  0.10137700  0.95615000  0.70493700  1
loop_
 _atom_site_moment_label
 _atom_site_moment_crystalaxis_x
 _atom_site_moment_crystalaxis_y
 _atom_site_moment_crystalaxis_z
  Li0  -0.00000418  0.00001255  -0.00499778
  Mn1  -0.00347265  0.01042260  -4.15215692
  Mn2  -0.00347265  0.01042260  -4.15215692
  Mn3  -0.00347933  0.01044267  -4.16015338
  Mn4  -0.00347933  0.01044267  -4.16015338
  Mn5  0.00342081  -0.01026704  4.09018443
  Mn6  0.00343001  -0.01029464  4.10117955
  Mn7  0.00343001  -0.01029464  4.10117955
  Mn8  0.00343419  -0.01030718  4.10617733
  Mn9  0.00343503  -0.01030969  4.10717689
  Se10  0.00000084  -0.00000251  0.00099956
  Se11  0.00000084  -0.00000251  0.00099956
  Se12  -0.00000585  0.00001756  -0.00699689
  Se13  -0.00000585  0.00001756  -0.00699689
  Se14  -0.00001338  0.00004014  -0.01599290
  Se15  -0.00001338  0.00004014  -0.01599290
  Se16  -0.00001672  0.00005018  -0.01999113
  Se17  -0.00001672  0.00005018  -0.01999113
  Se18  0.00000251  -0.00000753  0.00299867
  Se19  0.00000251  -0.00000753  0.00299867
