# generated using pymatgen
data_CaMnBi2
_symmetry_space_group_name_H-M   'P 1'
_cell_length_a   4.53415678
_cell_length_b   4.53557281
_cell_length_c   10.85916100
_cell_angle_alpha   89.99894234
_cell_angle_beta   90.00030014
_cell_angle_gamma   89.87894272
_symmetry_Int_Tables_number   1
_chemical_formula_structural   CaMnBi2
_chemical_formula_sum   'Ca2 Mn2 Bi4'
_cell_volume   223.31812807
_cell_formula_units_Z   2
loop_
 _symmetry_equiv_pos_site_id
 _symmetry_equiv_pos_as_xyz
  1  'x, y, z'
loop_
 _atom_site_type_symbol
 _atom_site_label
 _atom_site_symmetry_multiplicity
 _atom_site_fract_x
 _atom_site_fract_y
 _atom_site_fract_z
 _atom_site_occupancy
  Ca  Ca0  1  0.74999900  0.25000300  0.73872900  1
  Ca  Ca1  1  0.25000000  0.74999700  0.26127300  1
  Mn  Mn2  1  0.75000200  0.74999900  0.00006400  1
  Mn  Mn3  1  0.24999800  0.24999900  0.99993300  1
  Bi  Bi4  1  0.25000000  0.25000100  0.49936200  1
  Bi  Bi5  1  0.74999900  0.75000100  0.50063800  1
  Bi  Bi6  1  0.75000100  0.25000000  0.15730300  1
  Bi  Bi7  1  0.25000000  0.75000100  0.84269700  1
loop_
 _atom_site_moment_label
 _atom_site_moment_crystalaxis_x
 _atom_site_moment_crystalaxis_y
 _atom_site_moment_crystalaxis_z
  Mn2  -0.00000989  0.00003486  -3.78700000
  Mn3  0.00000988  -0.00003484  3.78500000
  Bi4  0.00000002  -0.00000006  0.00700000
  Bi5  -0.00000002  0.00000006  -0.00700000
  Bi7  0.00000000  0.00000000  0.00100000
