# generated using pymatgen
data_Mn2As
_symmetry_space_group_name_H-M   'P 1'
_cell_length_a   3.68350206
_cell_length_b   3.68494005
_cell_length_c   6.14955713
_cell_angle_alpha   90.01544566
_cell_angle_beta   90.01830029
_cell_angle_gamma   89.88026647
_symmetry_Int_Tables_number   1
_chemical_formula_structural   Mn2As
_chemical_formula_sum   'Mn4 As2'
_cell_volume   83.47072729
_cell_formula_units_Z   2
loop_
 _symmetry_equiv_pos_site_id
 _symmetry_equiv_pos_as_xyz
  1  'x, y, z'
loop_
 _atom_site_type_symbol
 _atom_site_label
 _atom_site_symmetry_multiplicity
 _atom_site_fract_x
 _atom_site_fract_y
 _atom_site_fract_z
 _atom_site_occupancy
  Mn  Mn0  1  0.49992400  0.50010900  0.99998400  1
  Mn  Mn1  1  0.00007500  0.99988000  0.99998200  1
  Mn  Mn2  1  0.50002300  0.00000600  0.31959200  1
  Mn  Mn3  1  0.99998100  0.49999000  0.68048000  1
  As  As4  1  0.50002100  0.00005900  0.72759900  1
  As  As5  1  0.99997600  0.49995500  0.27236300  1
loop_
 _atom_site_moment_label
 _atom_site_moment_crystalaxis_x
 _atom_site_moment_crystalaxis_y
 _atom_site_moment_crystalaxis_z
  Mn0  -0.00032379  -0.00026939  -2.01300013
  Mn1  -0.00032330  -0.00026899  -2.01000013
  Mn2  0.00052420  0.00043614  3.25900021
  Mn3  0.00052420  0.00043614  3.25900021
  As4  0.00000113  0.00000094  0.00700000
  As5  0.00000113  0.00000094  0.00700000
