# generated using pymatgen
data_MnSe
_symmetry_space_group_name_H-M   'P 1'
_cell_length_a   5.73008229
_cell_length_b   6.00120724
_cell_length_c   7.23475232
_cell_angle_alpha   65.40592151
_cell_angle_beta   66.63061264
_cell_angle_gamma   89.98237824
_symmetry_Int_Tables_number   1
_chemical_formula_structural   MnSe
_chemical_formula_sum   'Mn4 Se4'
_cell_volume   203.57084169
_cell_formula_units_Z   4
loop_
 _symmetry_equiv_pos_site_id
 _symmetry_equiv_pos_as_xyz
  1  'x, y, z'
loop_
 _atom_site_type_symbol
 _atom_site_label
 _atom_site_symmetry_multiplicity
 _atom_site_fract_x
 _atom_site_fract_y
 _atom_site_fract_z
 _atom_site_occupancy
  Mn  Mn0  1  0.50007700  0.50037000  0.99990800  1
  Mn  Mn1  1  0.49992100  0.99961700  0.00008900  1
  Mn  Mn2  1  0.00007000  0.00037000  0.99994200  1
  Mn  Mn3  1  0.99993500  0.49963000  0.00005900  1
  Se  Se4  1  0.86990900  0.86972100  0.76137800  1
  Se  Se5  1  0.37003000  0.36967300  0.76134100  1
  Se  Se6  1  0.62996800  0.13029500  0.23865700  1
  Se  Se7  1  0.13009100  0.63032400  0.23862600  1
loop_
 _atom_site_moment_label
 _atom_site_moment_crystalaxis_x
 _atom_site_moment_crystalaxis_y
 _atom_site_moment_crystalaxis_z
  Mn0  1.84946368  1.94041443  -4.67087239
  Mn1  1.84946368  1.94041443  -4.67087239
  Mn2  -1.84946368  -1.94041443  4.67087239
  Mn3  -1.84946368  -1.94041443  4.67087239
