# generated using pymatgen
data_Ca5MnPb3
_symmetry_space_group_name_H-M   'P 1'
_cell_length_a   9.51365346
_cell_length_b   9.51308403
_cell_length_c   13.77894000
_cell_angle_alpha   89.99878041
_cell_angle_beta   90.00149338
_cell_angle_gamma   120.00664391
_symmetry_Int_Tables_number   1
_chemical_formula_structural   Ca5MnPb3
_chemical_formula_sum   'Ca20 Mn4 Pb12'
_cell_volume   1079.90616897
_cell_formula_units_Z   4
loop_
 _symmetry_equiv_pos_site_id
 _symmetry_equiv_pos_as_xyz
  1  'x, y, z'
loop_
 _atom_site_type_symbol
 _atom_site_label
 _atom_site_symmetry_multiplicity
 _atom_site_fract_x
 _atom_site_fract_y
 _atom_site_fract_z
 _atom_site_occupancy
  Ca  Ca0  1  0.33392500  0.66626800  0.00220900  1
  Ca  Ca1  1  0.33285100  0.66713800  0.50221600  1
  Ca  Ca2  1  0.66755700  0.33333900  0.00221100  1
  Ca  Ca3  1  0.66582700  0.33323700  0.50221500  1
  Ca  Ca4  1  0.33383300  0.66622200  0.24782300  1
  Ca  Ca5  1  0.33288300  0.66713100  0.74782000  1
  Ca  Ca6  1  0.66753700  0.33340300  0.24782000  1
  Ca  Ca7  1  0.66585800  0.33322300  0.74782200  1
  Ca  Ca8  1  0.00000500  0.30944800  0.37519400  1
  Ca  Ca9  1  0.00004700  0.31005500  0.87480500  1
  Ca  Ca10  1  0.00118500  0.73225100  0.12511400  1
  Ca  Ca11  1  0.99888300  0.73163700  0.62485400  1
  Ca  Ca12  1  0.69059000  0.69056900  0.37509300  1
  Ca  Ca13  1  0.69001100  0.68994700  0.87488500  1
  Ca  Ca14  1  0.30938800  0.99998800  0.37482000  1
  Ca  Ca15  1  0.30995600  0.99997800  0.87519600  1
  Ca  Ca16  1  0.26897200  0.26745900  0.12513800  1
  Ca  Ca17  1  0.26715500  0.26864100  0.62487300  1
  Ca  Ca18  1  0.73202000  0.99972400  0.12518800  1
  Ca  Ca19  1  0.73168300  0.00030800  0.62484500  1
  Mn  Mn20  1  0.99997400  0.99995700  0.78035700  1
  Mn  Mn21  1  0.00001300  0.99994900  0.46962600  1
  Mn  Mn22  1  0.99984000  0.00004200  0.28031900  1
  Mn  Mn23  1  0.99974500  0.00004400  0.96955500  1
  Pb  Pb24  1  0.38426200  0.99976000  0.12505800  1
  Pb  Pb25  1  0.38197700  0.00023100  0.62504100  1
  Pb  Pb26  1  0.64954900  0.99999700  0.37450100  1
  Pb  Pb27  1  0.64965500  0.99999900  0.87541800  1
  Pb  Pb28  1  0.99998900  0.64947800  0.37523000  1
  Pb  Pb29  1  0.00000300  0.64954100  0.87470500  1
  Pb  Pb30  1  0.61783600  0.61699600  0.12503200  1
  Pb  Pb31  1  0.61606000  0.61691800  0.62501400  1
  Pb  Pb32  1  0.00068600  0.38258200  0.12498700  1
  Pb  Pb33  1  0.99932600  0.38362000  0.62502700  1
  Pb  Pb34  1  0.35048500  0.35050000  0.37512000  1
  Pb  Pb35  1  0.35043300  0.35042200  0.87486900  1
loop_
 _atom_site_moment_label
 _atom_site_moment_crystalaxis_x
 _atom_site_moment_crystalaxis_y
 _atom_site_moment_crystalaxis_z
  Ca0  0.00000070  0.00800035  -0.00000008
  Ca1  -0.00000070  -0.00800035  0.00000008
  Ca2  0.00000070  0.00800035  -0.00000008
  Ca3  -0.00000070  -0.00800035  0.00000008
  Ca4  0.00000070  0.00800035  -0.00000008
  Ca5  -0.00000070  -0.00800035  0.00000008
  Ca6  0.00000070  0.00800035  -0.00000008
  Ca7  -0.00000070  -0.00800035  0.00000008
  Ca10  -0.00000061  -0.00700030  0.00000007
  Ca11  0.00000052  0.00600026  -0.00000006
  Ca16  -0.00000052  -0.00600026  0.00000006
  Ca17  0.00000052  0.00600026  -0.00000006
  Ca18  -0.00000043  -0.00500022  0.00000005
  Ca19  0.00000061  0.00700030  -0.00000007
  Mn20  -0.00034618  -3.98317311  0.00004228
  Mn21  -0.00034653  -3.98717329  0.00004233
  Mn22  0.00034609  3.98217307  -0.00004227
  Mn23  0.00034879  4.01317442  -0.00004260
  Pb24  0.00000443  0.05100222  -0.00000054
  Pb25  -0.00000417  -0.04800209  0.00000051
  Pb26  0.00000017  0.00200009  -0.00000002
  Pb27  0.00000009  0.00100004  -0.00000001
  Pb28  -0.00000017  -0.00200009  0.00000002
  Pb29  -0.00000026  -0.00300013  0.00000003
  Pb30  0.00000417  0.04800209  -0.00000051
  Pb31  -0.00000435  -0.05000217  0.00000053
  Pb32  0.00000408  0.04700204  -0.00000050
  Pb33  -0.00000443  -0.05100222  0.00000054
  Pb34  -0.00000009  -0.00100004  0.00000001
  Pb35  -0.00000017  -0.00200009  0.00000002
