# generated using pymatgen
data_Ba(FeS2)2
_symmetry_space_group_name_H-M   'P 1'
_cell_length_a   5.38228896
_cell_length_b   6.24152048
_cell_length_c   6.24151847
_cell_angle_alpha   100.71567671
_cell_angle_beta   64.44964740
_cell_angle_gamma   115.55038397
_symmetry_Int_Tables_number   1
_chemical_formula_structural   Ba(FeS2)2
_chemical_formula_sum   'Ba1 Fe2 S4'
_cell_volume   170.67092720
_cell_formula_units_Z   1
loop_
 _symmetry_equiv_pos_site_id
 _symmetry_equiv_pos_as_xyz
  1  'x, y, z'
loop_
 _atom_site_type_symbol
 _atom_site_label
 _atom_site_symmetry_multiplicity
 _atom_site_fract_x
 _atom_site_fract_y
 _atom_site_fract_z
 _atom_site_occupancy
  Ba  Ba0  1  0.00000000  0.99999500  0.99999500  1
  Fe  Fe1  1  0.00000000  0.50001000  0.50001000  1
  Fe  Fe2  1  0.50000000  0.49998900  0.49998900  1
  S  S3  1  0.59457200  0.18908400  0.49996400  1
  S  S4  1  0.40542800  0.49996400  0.18908400  1
  S  S5  1  0.09456400  0.50004000  0.81091700  1
  S  S6  1  0.90543600  0.81091700  0.50004000  1
loop_
 _atom_site_moment_label
 _atom_site_moment_crystalaxis_x
 _atom_site_moment_crystalaxis_y
 _atom_site_moment_crystalaxis_z
  Fe1  0.02476337  0.00005319  -2.79558121
  Fe2  -0.02475448  -0.00005317  2.79457741
