# generated using pymatgen
data_Na3(VSe2)5
_symmetry_space_group_name_H-M   'P 1'
_cell_length_a   6.19342873
_cell_length_b   8.47710689
_cell_length_c   9.06840191
_cell_angle_alpha   114.44719322
_cell_angle_beta   96.55486710
_cell_angle_gamma   103.58981990
_symmetry_Int_Tables_number   1
_chemical_formula_structural   Na3(VSe2)5
_chemical_formula_sum   'Na3 V5 Se10'
_cell_volume   409.09149254
_cell_formula_units_Z   1
loop_
 _symmetry_equiv_pos_site_id
 _symmetry_equiv_pos_as_xyz
  1  'x, y, z'
loop_
 _atom_site_type_symbol
 _atom_site_label
 _atom_site_symmetry_multiplicity
 _atom_site_fract_x
 _atom_site_fract_y
 _atom_site_fract_z
 _atom_site_occupancy
  Na  Na0  1  0.65415100  0.48834000  0.99890000  1
  Na  Na1  1  0.42368000  0.09904200  0.59751900  1
  Na  Na2  1  0.26349700  0.71000800  0.20523000  1
  V  V3  1  0.96995100  0.98457400  0.98497400  1
  V  V4  1  0.80592000  0.61931600  0.61209800  1
  V  V5  1  0.63727800  0.20213500  0.20241100  1
  V  V6  1  0.43411700  0.78831300  0.78999400  1
  V  V7  1  0.17019000  0.40895000  0.41040200  1
  Se  Se8  1  0.97108400  0.32076900  0.11103100  1
  Se  Se9  1  0.76531300  0.92955900  0.70566100  1
  Se  Se10  1  0.83753700  0.28276800  0.49393900  1
  Se  Se11  1  0.55330900  0.51046900  0.32465600  1
  Se  Se12  1  0.64478400  0.87331600  0.08723900  1
  Se  Se13  1  0.36091800  0.10160000  0.92148400  1
  Se  Se14  1  0.44512100  0.47365600  0.68021300  1
  Se  Se15  1  0.15961300  0.72675600  0.52044300  1
  Se  Se16  1  0.24491300  0.09527800  0.27215300  1
  Se  Se17  1  0.05866400  0.68532900  0.88153100  1
loop_
 _atom_site_moment_label
 _atom_site_moment_crystalaxis_x
 _atom_site_moment_crystalaxis_y
 _atom_site_moment_crystalaxis_z
  Na0  -0.00000044  -0.00000033  0.00099981
  Na1  -0.00000044  -0.00000033  0.00099981
  Na2  -0.00000088  -0.00000067  0.00199962
  V3  -0.00071005  -0.00053665  1.60869669
  V4  -0.00073079  -0.00055233  1.65568783
  V5  -0.00074668  -0.00056434  1.69168104
  V6  -0.00071491  -0.00054032  1.61969461
  V7  -0.00069108  -0.00052231  1.56570479
  Se8  0.00004369  0.00003302  -0.09898134
  Se9  0.00004369  0.00003302  -0.09898134
  Se10  0.00005031  0.00003802  -0.11397851
  Se11  0.00003575  0.00002702  -0.08098473
  Se12  0.00004413  0.00003335  -0.09998115
  Se13  0.00003619  0.00002735  -0.08198454
  Se14  0.00004457  0.00003369  -0.10098096
  Se15  0.00004281  0.00003235  -0.09698171
  Se16  0.00004016  0.00003035  -0.09098285
  Se17  0.00003972  0.00003002  -0.08998303
