# generated using pymatgen
data_VSe2
_symmetry_space_group_name_H-M   'P 1'
_cell_length_a   3.35380600
_cell_length_b   3.35380583
_cell_length_c   14.00085400
_cell_angle_alpha   90.00000000
_cell_angle_beta   90.00000000
_cell_angle_gamma   120.00000167
_symmetry_Int_Tables_number   1
_chemical_formula_structural   VSe2
_chemical_formula_sum   'V2 Se4'
_cell_volume   136.38324014
_cell_formula_units_Z   2
loop_
 _symmetry_equiv_pos_site_id
 _symmetry_equiv_pos_as_xyz
  1  'x, y, z'
loop_
 _atom_site_type_symbol
 _atom_site_label
 _atom_site_symmetry_multiplicity
 _atom_site_fract_x
 _atom_site_fract_y
 _atom_site_fract_z
 _atom_site_occupancy
  V  V0  1  0.00000000  0.00000000  0.50000000  1
  V  V1  1  0.00000000  0.00000000  0.00000000  1
  Se  Se2  1  0.66666700  0.33333300  0.38746800  1
  Se  Se3  1  0.66666700  0.33333300  0.88746800  1
  Se  Se4  1  0.33333300  0.66666700  0.11253300  1
  Se  Se5  1  0.33333300  0.66666700  0.61253300  1
loop_
 _atom_site_moment_label
 _atom_site_moment_crystalaxis_x
 _atom_site_moment_crystalaxis_y
 _atom_site_moment_crystalaxis_z
  V0  0.00000000  0.00000000  -0.73300000
  V1  0.00000000  0.00000000  0.73300000
  Se2  0.00000000  0.00000000  0.04800000
  Se3  0.00000000  0.00000000  -0.04800000
  Se4  0.00000000  0.00000000  -0.04800000
  Se5  0.00000000  0.00000000  0.04800000
