# generated using pymatgen
data_Ba(FeS2)2
_symmetry_space_group_name_H-M   'P 1'
_cell_length_a   5.19024035
_cell_length_b   6.09171478
_cell_length_c   6.07066378
_cell_angle_alpha   79.41956576
_cell_angle_beta   64.63184423
_cell_angle_gamma   64.76978481
_symmetry_Int_Tables_number   1
_chemical_formula_structural   Ba(FeS2)2
_chemical_formula_sum   'Ba1 Fe2 S4'
_cell_volume   156.88597848
_cell_formula_units_Z   1
loop_
 _symmetry_equiv_pos_site_id
 _symmetry_equiv_pos_as_xyz
  1  'x, y, z'
loop_
 _atom_site_type_symbol
 _atom_site_label
 _atom_site_symmetry_multiplicity
 _atom_site_fract_x
 _atom_site_fract_y
 _atom_site_fract_z
 _atom_site_occupancy
  Ba  Ba0  1  0.03065000  0.00078400  0.00023800  1
  Fe  Fe1  1  0.26022700  0.50002900  0.50006900  1
  Fe  Fe2  1  0.76086400  0.49977500  0.49971800  1
  S  S3  1  0.39320200  0.81121100  0.42284100  1
  S  S4  1  0.81483200  0.57835200  0.81195300  1
  S  S5  1  0.20675500  0.42113600  0.18779400  1
  S  S6  1  0.62701800  0.18871500  0.57738600  1
loop_
 _atom_site_moment_label
 _atom_site_moment_crystalaxis_x
 _atom_site_moment_crystalaxis_y
 _atom_site_moment_crystalaxis_z
  Fe1  -0.02160519  -0.00148455  2.59045040
  Fe2  0.02160519  0.00148455  -2.59045040
  S4  0.00000837  0.00000058  -0.00100366
  S5  0.00000837  0.00000058  -0.00100366
