# generated using pymatgen
data_Ca(MnP)2
_symmetry_space_group_name_H-M   'P 1'
_cell_length_a   3.95106300
_cell_length_b   3.95105638
_cell_length_c   6.71721900
_cell_angle_alpha   90.00004378
_cell_angle_beta   89.99998550
_cell_angle_gamma   120.00009278
_symmetry_Int_Tables_number   1
_chemical_formula_structural   Ca(MnP)2
_chemical_formula_sum   'Ca1 Mn2 P2'
_cell_volume   90.81276840
_cell_formula_units_Z   1
loop_
 _symmetry_equiv_pos_site_id
 _symmetry_equiv_pos_as_xyz
  1  'x, y, z'
loop_
 _atom_site_type_symbol
 _atom_site_label
 _atom_site_symmetry_multiplicity
 _atom_site_fract_x
 _atom_site_fract_y
 _atom_site_fract_z
 _atom_site_occupancy
  Ca  Ca0  1  0.00000100  0.00000100  0.00008000  1
  Mn  Mn1  1  0.33333300  0.66666600  0.61639600  1
  Mn  Mn2  1  0.66666700  0.33333300  0.38356600  1
  P  P3  1  0.33333200  0.66666700  0.27705700  1
  P  P4  1  0.66666700  0.33333300  0.72290100  1
loop_
 _atom_site_moment_label
 _atom_site_moment_crystalaxis_x
 _atom_site_moment_crystalaxis_y
 _atom_site_moment_crystalaxis_z
  Mn1  -0.00000053  -0.00000106  -3.09600000
  Mn2  0.00000053  0.00000106  3.09600000
  P3  0.00000000  0.00000000  -0.02500000
  P4  0.00000000  0.00000000  0.02500000
