# generated using pymatgen
data_Fe13Ge3
_symmetry_space_group_name_H-M   'P 1'
_cell_length_a   8.07718008
_cell_length_b   8.06885287
_cell_length_c   8.07603323
_cell_angle_alpha   60.04844142
_cell_angle_beta   89.88638170
_cell_angle_gamma   119.97274079
_symmetry_Int_Tables_number   1
_chemical_formula_structural   Fe13Ge3
_chemical_formula_sum   'Fe26 Ge6'
_cell_volume   372.23743301
_cell_formula_units_Z   2
loop_
 _symmetry_equiv_pos_site_id
 _symmetry_equiv_pos_as_xyz
  1  'x, y, z'
loop_
 _atom_site_type_symbol
 _atom_site_label
 _atom_site_symmetry_multiplicity
 _atom_site_fract_x
 _atom_site_fract_y
 _atom_site_fract_z
 _atom_site_occupancy
  Fe  Fe0  1  0.24998800  0.49997900  0.25001600  1
  Fe  Fe1  1  0.00000000  0.00000000  0.00000600  1
  Fe  Fe2  1  0.49997600  0.99998800  0.49999300  1
  Fe  Fe3  1  0.75000600  0.50003300  0.74998300  1
  Fe  Fe4  1  0.25008500  0.50018100  0.74989900  1
  Fe  Fe5  1  0.74990200  0.49982600  0.25009600  1
  Fe  Fe6  1  0.25008500  0.00000600  0.74988700  1
  Fe  Fe7  1  0.74990600  0.99998800  0.25010100  1
  Fe  Fe8  1  0.25006500  0.99998900  0.25009900  1
  Fe  Fe9  1  0.74993900  0.99999900  0.74992700  1
  Fe  Fe10  1  0.87652200  0.75285200  0.37077800  1
  Fe  Fe11  1  0.37653300  0.75289400  0.87074200  1
  Fe  Fe12  1  0.12919000  0.75286300  0.62347900  1
  Fe  Fe13  1  0.62928900  0.75288800  0.12346900  1
  Fe  Fe14  1  0.62368300  0.24718900  0.62363200  1
  Fe  Fe15  1  0.12365400  0.24711400  0.12365900  1
  Fe  Fe16  1  0.62349000  0.24717200  0.12920200  1
  Fe  Fe17  1  0.12346700  0.24709200  0.62927400  1
  Fe  Fe18  1  0.87633400  0.75283300  0.87636100  1
  Fe  Fe19  1  0.37633300  0.75284300  0.37633600  1
  Fe  Fe20  1  0.62367700  0.75284900  0.62367000  1
  Fe  Fe21  1  0.12362200  0.75289200  0.12365400  1
  Fe  Fe22  1  0.87634100  0.24714100  0.87633400  1
  Fe  Fe23  1  0.37636200  0.24714000  0.37633800  1
  Fe  Fe24  1  0.37077800  0.24712700  0.87652900  1
  Fe  Fe25  1  0.87073500  0.24711700  0.37653400  1
  Ge  Ge26  1  0.49999300  0.49997900  0.00001700  1
  Ge  Ge27  1  0.00000100  0.50002500  0.50001700  1
  Ge  Ge28  1  0.50001100  0.49998600  0.50000700  1
  Ge  Ge29  1  0.00000300  0.50001300  0.99996900  1
  Ge  Ge30  1  0.50000600  0.00002100  0.99998900  1
  Ge  Ge31  1  0.00002500  0.99998100  0.49999900  1
loop_
 _atom_site_moment_label
 _atom_site_moment_crystalaxis_x
 _atom_site_moment_crystalaxis_y
 _atom_site_moment_crystalaxis_z
  Fe0  1.73797621  0.00043264  1.73754497
  Fe1  1.74150868  0.00043352  1.74107656
  Fe2  1.73797621  0.00043264  1.73754497
  Fe3  1.73373725  0.00043158  1.73330705
  Fe4  1.75917104  0.00043791  1.75873454
  Fe5  1.75705156  0.00043739  1.75661558
  Fe6  1.75775806  0.00043756  1.75732190
  Fe7  1.75705156  0.00043739  1.75661558
  Fe8  1.75634507  0.00043721  1.75590926
  Fe9  1.75775806  0.00043756  1.75732190
  Fe10  1.28652629  0.00032026  1.28620707
  Fe11  1.27522238  0.00031744  1.27490596
  Fe12  1.27875486  0.00031832  1.27843756
  Fe13  1.28723279  0.00032043  1.28691339
  Fe14  1.28158083  0.00031903  1.28126283
  Fe15  1.28370032  0.00031955  1.28338179
  Fe16  1.28370032  0.00031955  1.28338179
  Fe17  1.27310290  0.00031692  1.27278701
  Fe18  1.28440681  0.00031973  1.28408811
  Fe19  1.28158083  0.00031903  1.28126283
  Fe20  1.28440681  0.00031973  1.28408811
  Fe21  1.28087434  0.00031885  1.28055652
  Fe22  1.28511331  0.00031991  1.28479443
  Fe23  1.28016784  0.00031867  1.27985020
  Fe24  1.27946135  0.00031850  1.27914388
  Fe25  1.28087434  0.00031885  1.28055652
  Ge26  -0.06641047  -0.00001653  -0.06639399
  Ge27  -0.06641047  -0.00001653  -0.06639399
  Ge28  -0.06570398  -0.00001636  -0.06568768
  Ge29  -0.06570398  -0.00001636  -0.06568768
  Ge30  -0.06641047  -0.00001653  -0.06639399
  Ge31  -0.06641047  -0.00001653  -0.06639399
