# generated using pymatgen
data_K3(VS2)5
_symmetry_space_group_name_H-M   'P 1'
_cell_length_a   5.76434119
_cell_length_b   8.65375110
_cell_length_c   15.77776943
_cell_angle_alpha   82.78086321
_cell_angle_beta   97.17510348
_cell_angle_gamma   102.96269129
_symmetry_Int_Tables_number   1
_chemical_formula_structural   K3(VS2)5
_chemical_formula_sum   'K6 V10 S20'
_cell_volume   757.09151956
_cell_formula_units_Z   2
loop_
 _symmetry_equiv_pos_site_id
 _symmetry_equiv_pos_as_xyz
  1  'x, y, z'
loop_
 _atom_site_type_symbol
 _atom_site_label
 _atom_site_symmetry_multiplicity
 _atom_site_fract_x
 _atom_site_fract_y
 _atom_site_fract_z
 _atom_site_occupancy
  K  K0  1  0.16748900  0.40907700  0.09928500  1
  K  K1  1  0.66867600  0.91048800  0.59901400  1
  K  K2  1  0.62092700  0.10258600  0.40097400  1
  K  K3  1  0.11941700  0.60322200  0.90131800  1
  K  K4  1  0.66427300  0.29413500  0.20206600  1
  K  K5  1  0.16547500  0.79516300  0.70245400  1
  V  V6  1  0.51657200  0.69731900  0.30518500  1
  V  V7  1  0.01272200  0.19771800  0.80545800  1
  V  V8  1  0.00672100  0.42016900  0.58165500  1
  V  V9  1  0.00076700  0.60078800  0.39954600  1
  V  V10  1  0.50107800  0.10287400  0.89820300  1
  V  V11  1  0.99799500  0.00471200  0.99609600  1
  V  V12  1  0.49580200  0.50403800  0.49672600  1
  V  V13  1  0.50626900  0.92009000  0.08150500  1
  V  V14  1  0.99965900  0.78074700  0.21893000  1
  V  V15  1  0.50027800  0.28121400  0.71949500  1
  S  S16  1  0.10882400  0.76475200  0.06995200  1
  S  S17  1  0.60846200  0.26567200  0.56890700  1
  S  S18  1  0.60407200  0.45232200  0.36337600  1
  S  S19  1  0.10243300  0.95214200  0.86252800  1
  S  S20  1  0.39689300  0.93585500  0.23214800  1
  S  S21  1  0.89564200  0.43719900  0.73083700  1
  S  S22  1  0.61051200  0.66407000  0.16448500  1
  S  S23  1  0.11298000  0.16612300  0.66360900  1
  S  S24  1  0.40082800  0.15861400  0.03304800  1
  S  S25  1  0.89900500  0.65846300  0.53301200  1
  S  S26  1  0.10707000  0.35021400  0.45758400  1
  S  S27  1  0.60522100  0.85086500  0.95764800  1
  S  S28  1  0.90286500  0.85264700  0.34305400  1
  S  S29  1  0.40474300  0.35502600  0.84204200  1
  S  S30  1  0.11252700  0.54378100  0.26712100  1
  S  S31  1  0.61084800  0.04448300  0.76613100  1
  S  S32  1  0.89853400  0.03570800  0.13731900  1
  S  S33  1  0.39979100  0.53754100  0.63620900  1
  S  S34  1  0.39649700  0.74809700  0.43749400  1
  S  S35  1  0.89812300  0.25008600  0.93758400  1
loop_
 _atom_site_moment_label
 _atom_site_moment_crystalaxis_x
 _atom_site_moment_crystalaxis_y
 _atom_site_moment_crystalaxis_z
  K0  -0.00032425  -0.00048216  0.00087620
  K1  -0.00032425  -0.00048216  0.00087620
  K4  -0.00032425  -0.00048216  0.00087620
  K5  -0.00032425  -0.00048216  0.00087620
  V6  -0.36348045  -0.54050142  0.98222427
  V7  -0.37807155  -0.56219863  1.02165343
  V8  -0.29765839  -0.44262293  0.80435493
  V9  0.38131401  0.56702023  -1.03041547
  V10  0.38585347  0.57377047  -1.04268232
  V11  -0.40141730  -0.59691415  1.08474009
  V12  -0.38228675  -0.56846671  1.03304408
  V13  -0.30771003  -0.45756989  0.83151724
  V14  -0.27723085  -0.41224685  0.74915410
  V15  -0.25583058  -0.38042428  0.69132466
  S16  0.01523959  0.02266152  -0.04118157
  S17  0.01394260  0.02073288  -0.03767676
  S18  0.00745767  0.01108968  -0.02015268
  S19  0.00810617  0.01205400  -0.02190509
  S20  0.01426685  0.02121504  -0.03855296
  S21  0.01426685  0.02121504  -0.03855296
  S22  0.01426685  0.02121504  -0.03855296
  S23  0.01361836  0.02025072  -0.03680055
  S24  0.01005164  0.01494696  -0.02716231
  S25  0.00940315  0.01398264  -0.02540991
  S26  0.01167288  0.01735776  -0.03154333
  S27  0.01199712  0.01783992  -0.03241953
  S28  0.01005164  0.01494696  -0.02716231
  S29  0.00940315  0.01398264  -0.02540991
  S30  0.00810617  0.01205400  -0.02190509
  S31  0.00810617  0.01205400  -0.02190509
  S32  0.01491534  0.02217936  -0.04030537
  S33  0.01394260  0.02073288  -0.03767676
  S34  0.00713343  0.01060752  -0.01927648
  S35  0.00778192  0.01157184  -0.02102889
