# generated using pymatgen
data_Cr7Se8
_symmetry_space_group_name_H-M   'P 1'
_cell_length_a   7.12434856
_cell_length_b   7.12425662
_cell_length_c   8.81518931
_cell_angle_alpha   54.75007410
_cell_angle_beta   54.74846052
_cell_angle_gamma   63.50317461
_symmetry_Int_Tables_number   1
_chemical_formula_structural   Cr7Se8
_chemical_formula_sum   'Cr7 Se8'
_cell_volume   294.06356455
_cell_formula_units_Z   1
loop_
 _symmetry_equiv_pos_site_id
 _symmetry_equiv_pos_as_xyz
  1  'x, y, z'
loop_
 _atom_site_type_symbol
 _atom_site_label
 _atom_site_symmetry_multiplicity
 _atom_site_fract_x
 _atom_site_fract_y
 _atom_site_fract_z
 _atom_site_occupancy
  Cr  Cr0  1  0.49999900  0.50001900  0.00000100  1
  Cr  Cr1  1  0.49999300  0.00000800  0.49999800  1
  Cr  Cr2  1  0.00001400  0.49999400  0.49999800  1
  Cr  Cr3  1  0.23111900  0.76884800  0.50000300  1
  Cr  Cr4  1  0.76887600  0.23114300  0.49999900  1
  Cr  Cr5  1  0.23341200  0.23342700  0.01008600  1
  Cr  Cr6  1  0.76656700  0.76655700  0.98992400  1
  Se  Se7  1  0.04887200  0.04887300  0.66509500  1
  Se  Se8  1  0.95113600  0.95113000  0.33490400  1
  Se  Se9  1  0.53588400  0.53588500  0.66756000  1
  Se  Se10  1  0.46411800  0.46411400  0.33244200  1
  Se  Se11  1  0.52841800  0.04122900  0.16899500  1
  Se  Se12  1  0.95877600  0.47158000  0.83100200  1
  Se  Se13  1  0.04122800  0.52842200  0.16899100  1
  Se  Se14  1  0.47158700  0.95877100  0.83100000  1
loop_
 _atom_site_moment_label
 _atom_site_moment_crystalaxis_x
 _atom_site_moment_crystalaxis_y
 _atom_site_moment_crystalaxis_z
  Cr0  -0.00397880  -0.00388091  3.57953291
  Cr1  -0.00392760  -0.00383097  3.53347458
  Cr2  -0.00393205  -0.00383531  3.53747965
  Cr3  -0.00378737  -0.00369419  3.40731482
  Cr4  -0.00378848  -0.00369528  3.40831609
  Cr5  -0.00384524  -0.00375064  3.45938075
  Cr6  -0.00384858  -0.00375390  3.46238456
  Se7  0.00011686  0.00011398  -0.10513313
  Se8  0.00011686  0.00011398  -0.10513313
  Se9  0.00009460  0.00009227  -0.08510778
  Se10  0.00009460  0.00009227  -0.08510778
  Se11  0.00011686  0.00011398  -0.10513313
  Se12  0.00011686  0.00011398  -0.10513313
  Se13  0.00011686  0.00011398  -0.10513313
  Se14  0.00011686  0.00011398  -0.10513313
