# generated using pymatgen
data_Mn2Ga5
_symmetry_space_group_name_H-M   'P 1'
_cell_length_a   8.81550001
_cell_length_b   8.81548301
_cell_length_c   2.69041300
_cell_angle_alpha   90.00017618
_cell_angle_beta   89.99982382
_cell_angle_gamma   90.00516056
_symmetry_Int_Tables_number   1
_chemical_formula_structural   Mn2Ga5
_chemical_formula_sum   'Mn4 Ga10'
_cell_volume   209.07977014
_cell_formula_units_Z   2
loop_
 _symmetry_equiv_pos_site_id
 _symmetry_equiv_pos_as_xyz
  1  'x, y, z'
loop_
 _atom_site_type_symbol
 _atom_site_label
 _atom_site_symmetry_multiplicity
 _atom_site_fract_x
 _atom_site_fract_y
 _atom_site_fract_z
 _atom_site_occupancy
  Mn  Mn0  1  0.67860400  0.17859900  0.49999700  1
  Mn  Mn1  1  0.32140300  0.82140700  0.50000000  1
  Mn  Mn2  1  0.17859600  0.32140500  0.50000000  1
  Mn  Mn3  1  0.82141700  0.67859200  0.49999700  1
  Ga  Ga4  1  0.49997000  0.99996900  0.00000000  1
  Ga  Ga5  1  0.99997700  0.50002200  0.00000000  1
  Ga  Ga6  1  0.56483400  0.70694800  0.00000000  1
  Ga  Ga7  1  0.43516800  0.29305600  0.00000300  1
  Ga  Ga8  1  0.06494100  0.79310800  0.00000100  1
  Ga  Ga9  1  0.93507900  0.20689200  0.99999900  1
  Ga  Ga10  1  0.29311100  0.56495800  0.00000000  1
  Ga  Ga11  1  0.70689400  0.43509700  0.00000100  1
  Ga  Ga12  1  0.20695000  0.06480800  0.00000100  1
  Ga  Ga13  1  0.79305500  0.93514000  0.00000000  1
loop_
 _atom_site_moment_label
 _atom_site_moment_crystalaxis_x
 _atom_site_moment_crystalaxis_y
 _atom_site_moment_crystalaxis_z
  Mn0  -0.00000352  0.00000352  2.36800000
  Mn1  -0.00000352  0.00000352  2.36700000
  Mn2  -0.00000352  0.00000352  2.36800000
  Mn3  -0.00000352  0.00000352  2.36800000
  Ga4  0.00000009  -0.00000009  -0.05800000
  Ga5  0.00000009  -0.00000009  -0.05800000
  Ga6  0.00000009  -0.00000009  -0.06100000
  Ga7  0.00000009  -0.00000009  -0.06100000
  Ga8  0.00000009  -0.00000009  -0.06100000
  Ga9  0.00000009  -0.00000009  -0.06100000
  Ga10  0.00000009  -0.00000009  -0.06100000
  Ga11  0.00000009  -0.00000009  -0.06100000
  Ga12  0.00000009  -0.00000009  -0.06100000
  Ga13  0.00000009  -0.00000009  -0.06100000
