# generated using pymatgen
data_NaCrS2
_symmetry_space_group_name_H-M   'P 1'
_cell_length_a   3.56738400
_cell_length_b   8.99681613
_cell_length_c   9.01003735
_cell_angle_alpha   85.44515525
_cell_angle_beta   89.99993461
_cell_angle_gamma   90.00002273
_symmetry_Int_Tables_number   1
_chemical_formula_structural   NaCrS2
_chemical_formula_sum   'Na4 Cr4 S8'
_cell_volume   288.26474161
_cell_formula_units_Z   4
loop_
 _symmetry_equiv_pos_site_id
 _symmetry_equiv_pos_as_xyz
  1  'x, y, z'
loop_
 _atom_site_type_symbol
 _atom_site_label
 _atom_site_symmetry_multiplicity
 _atom_site_fract_x
 _atom_site_fract_y
 _atom_site_fract_z
 _atom_site_occupancy
  Na  Na0  1  0.50000000  0.50030600  0.99830000  1
  Na  Na1  1  0.00000100  0.24970300  0.25170000  1
  Na  Na2  1  0.00000000  0.74970000  0.75169900  1
  Na  Na3  1  0.49999900  0.00031000  0.49830200  1
  Cr  Cr4  1  0.49999900  0.24664800  0.75267800  1
  Cr  Cr5  1  0.00000400  0.50341500  0.49728800  1
  Cr  Cr6  1  0.99999800  0.00340900  0.99727600  1
  Cr  Cr7  1  0.50000100  0.74663600  0.25267700  1
  S  S8  1  0.00000000  0.42872800  0.76300700  1
  S  S9  1  0.49999800  0.18375900  0.01877100  1
  S  S10  1  0.50000100  0.68375900  0.51877500  1
  S  S11  1  0.00000000  0.92873000  0.26300800  1
  S  S12  1  0.50000000  0.82122200  0.98697600  1
  S  S13  1  0.00000000  0.56622300  0.23128100  1
  S  S14  1  0.00000000  0.06622500  0.73127700  1
  S  S15  1  0.49999900  0.32122900  0.48698400  1
loop_
 _atom_site_moment_label
 _atom_site_moment_crystalaxis_x
 _atom_site_moment_crystalaxis_y
 _atom_site_moment_crystalaxis_z
  Cr4  0.00000064  -1.92754861  -1.92736241
  Cr5  0.00000064  -1.92754861  -1.92736241
  Cr6  -0.00000064  1.92754861  1.92736241
  Cr7  -0.00000064  1.92754861  1.92736241
  S8  -0.00000002  0.05513116  0.05512583
  S9  0.00000000  -0.01361263  -0.01361132
  S10  0.00000000  0.01361263  0.01361132
  S11  0.00000002  -0.05513116  -0.05512583
  S12  0.00000002  -0.05513116  -0.05512583
  S13  0.00000000  -0.01361263  -0.01361132
  S14  0.00000000  0.01361263  0.01361132
  S15  -0.00000002  0.05513116  0.05512583
