# generated using pymatgen
data_RbCr3S5
_symmetry_space_group_name_H-M   'P 1'
_cell_length_a   3.53305094
_cell_length_b   9.89643743
_cell_length_c   10.77332264
_cell_angle_alpha   71.60340431
_cell_angle_beta   80.56713757
_cell_angle_gamma   79.71698716
_symmetry_Int_Tables_number   1
_chemical_formula_structural   RbCr3S5
_chemical_formula_sum   'Rb2 Cr6 S10'
_cell_volume   349.35202614
_cell_formula_units_Z   2
loop_
 _symmetry_equiv_pos_site_id
 _symmetry_equiv_pos_as_xyz
  1  'x, y, z'
loop_
 _atom_site_type_symbol
 _atom_site_label
 _atom_site_symmetry_multiplicity
 _atom_site_fract_x
 _atom_site_fract_y
 _atom_site_fract_z
 _atom_site_occupancy
  Rb  Rb0  1  0.74491900  0.34225200  0.16793100  1
  Rb  Rb1  1  0.25507300  0.65775500  0.83207700  1
  Cr  Cr2  1  0.49999300  0.50000000  0.50000600  1
  Cr  Cr3  1  0.01080600  0.74850900  0.22989200  1
  Cr  Cr4  1  0.98920700  0.25148800  0.77011900  1
  Cr  Cr5  1  0.49999800  0.99999900  0.99999600  1
  Cr  Cr6  1  0.16194900  0.06380500  0.61232400  1
  Cr  Cr7  1  0.83806100  0.93619500  0.38765400  1
  S  S8  1  0.59014800  0.73624600  0.08339500  1
  S  S9  1  0.40987100  0.26374600  0.91661300  1
  S  S10  1  0.57537900  0.24274700  0.60631100  1
  S  S11  1  0.42461900  0.75724900  0.39368800  1
  S  S12  1  0.92263700  0.00555800  0.14919900  1
  S  S13  1  0.07735900  0.99444400  0.85079400  1
  S  S14  1  0.07723100  0.49882000  0.34670800  1
  S  S15  1  0.92275400  0.50118200  0.65330900  1
  S  S16  1  0.74172500  0.90081300  0.61570800  1
  S  S17  1  0.25827100  0.09918900  0.38427800  1
loop_
 _atom_site_moment_label
 _atom_site_moment_crystalaxis_x
 _atom_site_moment_crystalaxis_y
 _atom_site_moment_crystalaxis_z
  Cr2  0.00350911  0.00746002  -2.85091737
  Cr3  0.00334154  0.00710378  -2.71477806
  Cr4  0.00334154  0.00710378  -2.71477806
  Cr5  -0.00336248  -0.00714831  2.73179547
  Cr6  -0.00339452  -0.00721641  2.75782211
  Cr7  -0.00339452  -0.00721641  2.75782211
  S8  -0.00003696  -0.00007858  0.03003073
  S9  -0.00003696  -0.00007858  0.03003073
  S10  -0.00004682  -0.00009954  0.03803893
  S11  -0.00004682  -0.00009954  0.03803893
  S12  0.00003696  0.00007858  -0.03003073
  S13  0.00003696  0.00007858  -0.03003073
  S14  -0.00006900  -0.00014669  0.05605736
  S15  -0.00006900  -0.00014669  0.05605736
  S16  0.00010966  0.00023313  -0.08909117
  S17  0.00010966  0.00023313  -0.08909117
