# generated using pymatgen
data_CsFe2Se3
_symmetry_space_group_name_H-M   'P 1'
_cell_length_a   5.57181001
_cell_length_b   8.00052533
_cell_length_c   8.00052027
_cell_angle_alpha   101.55502128
_cell_angle_beta   89.99403573
_cell_angle_gamma   90.00598806
_symmetry_Int_Tables_number   1
_chemical_formula_structural   CsFe2Se3
_chemical_formula_sum   'Cs2 Fe4 Se6'
_cell_volume   349.41430220
_cell_formula_units_Z   2
loop_
 _symmetry_equiv_pos_site_id
 _symmetry_equiv_pos_as_xyz
  1  'x, y, z'
loop_
 _atom_site_type_symbol
 _atom_site_label
 _atom_site_symmetry_multiplicity
 _atom_site_fract_x
 _atom_site_fract_y
 _atom_site_fract_z
 _atom_site_occupancy
  Cs  Cs0  1  0.25000000  0.33450000  0.66550400  1
  Cs  Cs1  1  0.75000100  0.66550400  0.33450000  1
  Fe  Fe2  1  0.50000000  0.86554600  0.86554600  1
  Fe  Fe3  1  0.50000100  0.13444200  0.13444200  1
  Fe  Fe4  1  0.00000000  0.86567500  0.86567500  1
  Fe  Fe5  1  0.00000000  0.13439800  0.13439800  1
  Se  Se6  1  0.24988300  0.88470400  0.11538600  1
  Se  Se7  1  0.75011700  0.11538600  0.88470300  1
  Se  Se8  1  0.24998800  0.84344400  0.62949100  1
  Se  Se9  1  0.75001100  0.62949100  0.84344500  1
  Se  Se10  1  0.75002100  0.15653100  0.37038000  1
  Se  Se11  1  0.24997900  0.37037900  0.15653100  1
loop_
 _atom_site_moment_label
 _atom_site_moment_crystalaxis_x
 _atom_site_moment_crystalaxis_y
 _atom_site_moment_crystalaxis_z
  Fe2  0.00013745  0.03256132  -2.72329129
  Fe3  0.00013715  0.03248976  -2.71730604
  Fe4  -0.00013699  -0.03245398  2.71431341
  Fe5  -0.00013679  -0.03240627  2.71032324
  Se6  -0.00000010  -0.00002385  0.00199509
  Se7  -0.00000010  -0.00002385  0.00199509
  Se8  -0.00000010  -0.00002385  0.00199509
  Se9  -0.00000010  -0.00002385  0.00199509
  Se10  -0.00000010  -0.00002385  0.00199509
  Se11  -0.00000010  -0.00002385  0.00199509
