# generated using pymatgen
data_BaVSe3
_symmetry_space_group_name_H-M   'P 1'
_cell_length_a   5.89980902
_cell_length_b   7.03831809
_cell_length_c   7.03849254
_cell_angle_alpha   119.04653520
_cell_angle_beta   89.99598758
_cell_angle_gamma   90.00921823
_symmetry_Int_Tables_number   1
_chemical_formula_structural   BaVSe3
_chemical_formula_sum   'Ba2 V2 Se6'
_cell_volume   255.51125926
_cell_formula_units_Z   2
loop_
 _symmetry_equiv_pos_site_id
 _symmetry_equiv_pos_as_xyz
  1  'x, y, z'
loop_
 _atom_site_type_symbol
 _atom_site_label
 _atom_site_symmetry_multiplicity
 _atom_site_fract_x
 _atom_site_fract_y
 _atom_site_fract_z
 _atom_site_occupancy
  Ba  Ba0  1  0.75471200  0.33705700  0.66293000  1
  Ba  Ba1  1  0.25460600  0.66291000  0.33706900  1
  V  V2  1  0.01417600  0.02522200  0.97476900  1
  V  V3  1  0.51412400  0.97477100  0.02522000  1
  Se  Se4  1  0.24375900  0.67138700  0.83822800  1
  Se  Se5  1  0.24379600  0.16169300  0.32861300  1
  Se  Se6  1  0.27250300  0.17204000  0.82805300  1
  Se  Se7  1  0.74386000  0.83818100  0.67139000  1
  Se  Se8  1  0.74390700  0.32863800  0.16172700  1
  Se  Se9  1  0.77249200  0.82810100  0.17200000  1
loop_
 _atom_site_moment_label
 _atom_site_moment_crystalaxis_x
 _atom_site_moment_crystalaxis_y
 _atom_site_moment_crystalaxis_z
  Ba0  -0.00000004  -0.00000320  0.00099844
  Ba1  -0.00000004  -0.00000320  0.00099844
  V2  -0.00003634  -0.00332104  1.03638351
  V3  -0.00003634  -0.00332104  1.03638351
  Se4  0.00000214  0.00019517  -0.06090500
  Se5  0.00000214  0.00019517  -0.06090500
  Se6  0.00000294  0.00026875  -0.08386919
  Se7  0.00000214  0.00019517  -0.06090500
  Se8  0.00000214  0.00019517  -0.06090500
  Se9  0.00000294  0.00026875  -0.08386919
