# generated using pymatgen
data_Li2V2S5
_symmetry_space_group_name_H-M   'P 1'
_cell_length_a   5.90657305
_cell_length_b   5.90404274
_cell_length_c   11.00613077
_cell_angle_alpha   80.70733692
_cell_angle_beta   82.02112308
_cell_angle_gamma   116.17594776
_symmetry_Int_Tables_number   1
_chemical_formula_structural   Li2V2S5
_chemical_formula_sum   'Li4 V4 S10'
_cell_volume   330.23253261
_cell_formula_units_Z   2
loop_
 _symmetry_equiv_pos_site_id
 _symmetry_equiv_pos_as_xyz
  1  'x, y, z'
loop_
 _atom_site_type_symbol
 _atom_site_label
 _atom_site_symmetry_multiplicity
 _atom_site_fract_x
 _atom_site_fract_y
 _atom_site_fract_z
 _atom_site_occupancy
  Li  Li0  1  0.56758700  0.00714800  0.18070800  1
  Li  Li1  1  0.81208700  0.75158000  0.68064200  1
  Li  Li2  1  0.18796300  0.24834600  0.31936900  1
  Li  Li3  1  0.43244500  0.99276400  0.81928600  1
  V  V4  1  0.23997500  0.50559200  0.55183700  1
  V  V5  1  0.05759400  0.29214600  0.94795200  1
  V  V6  1  0.94253700  0.70755300  0.05221300  1
  V  V7  1  0.75975100  0.49469700  0.44794500  1
  S  S8  1  0.66384000  0.41381500  0.25011400  1
  S  S9  1  0.33596900  0.58609800  0.74988500  1
  S  S10  1  0.69948000  0.82541100  0.46819700  1
  S  S11  1  0.70656000  0.33220200  0.96815800  1
  S  S12  1  0.29342300  0.66760600  0.03194900  1
  S  S13  1  0.30049100  0.17496100  0.53174600  1
  S  S14  1  0.19241100  0.66623100  0.35805900  1
  S  S15  1  0.02445600  0.05035500  0.14183400  1
  S  S16  1  0.97555200  0.94967600  0.85831700  1
  S  S17  1  0.80787800  0.33381800  0.64178900  1
loop_
 _atom_site_moment_label
 _atom_site_moment_crystalaxis_x
 _atom_site_moment_crystalaxis_y
 _atom_site_moment_crystalaxis_z
  Li0  -0.00107348  -0.00107338  0.00200042
  Li1  -0.00107348  -0.00107338  0.00200042
  Li2  -0.00107348  -0.00107338  0.00200042
  Li3  -0.00107348  -0.00107338  0.00200042
  V4  -0.53835090  -0.53829825  1.00321195
  V5  -0.53888764  -0.53883494  1.00421216
  V6  -0.53942438  -0.53937163  1.00521237
  V7  -0.54049786  -0.54044501  1.00721279
  S8  0.02415333  0.02415097  -0.04500951
  S9  0.02415333  0.02415097  -0.04500951
  S10  0.03381466  0.03381136  -0.06301331
  S11  0.03381466  0.03381136  -0.06301331
  S12  0.03381466  0.03381136  -0.06301331
  S13  0.03327792  0.03327467  -0.06201310
  S14  0.02254311  0.02254090  -0.04200888
  S15  0.02254311  0.02254090  -0.04200888
  S16  0.02254311  0.02254090  -0.04200888
  S17  0.02254311  0.02254090  -0.04200888
