# generated using pymatgen
data_Li2Fe3S4
_symmetry_space_group_name_H-M   'P 1'
_cell_length_a   6.10402366
_cell_length_b   6.31269260
_cell_length_c   8.93804089
_cell_angle_alpha   67.79083769
_cell_angle_beta   106.99517987
_cell_angle_gamma   92.90211298
_symmetry_Int_Tables_number   1
_chemical_formula_structural   Li2Fe3S4
_chemical_formula_sum   'Li4 Fe6 S8'
_cell_volume   304.23416097
_cell_formula_units_Z   2
loop_
 _symmetry_equiv_pos_site_id
 _symmetry_equiv_pos_as_xyz
  1  'x, y, z'
loop_
 _atom_site_type_symbol
 _atom_site_label
 _atom_site_symmetry_multiplicity
 _atom_site_fract_x
 _atom_site_fract_y
 _atom_site_fract_z
 _atom_site_occupancy
  Li  Li0  1  0.04881900  0.20423100  0.81760000  1
  Li  Li1  1  0.54273600  0.97013800  0.83087600  1
  Li  Li2  1  0.45713400  0.02991300  0.16912600  1
  Li  Li3  1  0.95121600  0.79581100  0.18261000  1
  Fe  Fe4  1  0.23896400  0.52467700  0.97447100  1
  Fe  Fe5  1  0.76113400  0.47527700  0.02564500  1
  Fe  Fe6  1  0.93564200  0.83105800  0.62175300  1
  Fe  Fe7  1  0.06444800  0.16888500  0.37817800  1
  Fe  Fe8  1  0.45677500  0.56088300  0.61846300  1
  Fe  Fe9  1  0.54312200  0.43909400  0.38145900  1
  S  S10  1  0.45131700  0.31331700  0.88464500  1
  S  S11  1  0.93851700  0.79924300  0.88177900  1
  S  S12  1  0.06156000  0.20071300  0.11817200  1
  S  S13  1  0.54855400  0.68680000  0.11537300  1
  S  S14  1  0.29078700  0.88147000  0.59861200  1
  S  S15  1  0.20104900  0.48308300  0.41137100  1
  S  S16  1  0.79887600  0.51683500  0.58859100  1
  S  S17  1  0.70935000  0.11857100  0.40127500  1
loop_
 _atom_site_moment_label
 _atom_site_moment_crystalaxis_x
 _atom_site_moment_crystalaxis_y
 _atom_site_moment_crystalaxis_z
  Li0  -0.00008643  -0.00292729  0.00401689
  Li1  -0.00004321  -0.00146364  0.00200845
  Li2  -0.00004321  -0.00146364  0.00200845
  Li3  -0.00008643  -0.00292729  0.00401689
  Fe4  -0.06477584  -2.19400031  3.01066237
  Fe5  -0.06522957  -2.20936856  3.03175106
  Fe6  0.05624133  1.90493089  -2.61399404
  Fe7  0.05624133  1.90493089  -2.61399404
  Fe8  -0.05898534  -1.99787220  2.74153044
  Fe9  -0.05892052  -1.99567674  2.73851777
  S10  -0.00252794  -0.08562309  0.11749416
  S11  -0.00084265  -0.02854103  0.03916472
  S12  -0.00084265  -0.02854103  0.03916472
  S13  -0.00252794  -0.08562309  0.11749416
  S14  0.00036731  0.01244096  -0.01707180
  S15  -0.00032410  -0.01097732  0.01506335
  S16  -0.00032410  -0.01097732  0.01506335
  S17  0.00036731  0.01244096  -0.01707180
