# generated using pymatgen
data_Li5CrS4
_symmetry_space_group_name_H-M   'P 1'
_cell_length_a   3.72273091
_cell_length_b   7.58442517
_cell_length_c   12.19514752
_cell_angle_alpha   82.59135547
_cell_angle_beta   98.77853383
_cell_angle_gamma   104.20607260
_symmetry_Int_Tables_number   1
_chemical_formula_structural   Li5CrS4
_chemical_formula_sum   'Li10 Cr2 S8'
_cell_volume   328.37958848
_cell_formula_units_Z   2
loop_
 _symmetry_equiv_pos_site_id
 _symmetry_equiv_pos_as_xyz
  1  'x, y, z'
loop_
 _atom_site_type_symbol
 _atom_site_label
 _atom_site_symmetry_multiplicity
 _atom_site_fract_x
 _atom_site_fract_y
 _atom_site_fract_z
 _atom_site_occupancy
  Li  Li0  1  0.50000300  0.25000100  0.75000400  1
  Li  Li1  1  0.49999700  0.74999900  0.24999600  1
  Li  Li2  1  0.17747200  0.65875800  0.69620600  1
  Li  Li3  1  0.17747500  0.15876300  0.19621000  1
  Li  Li4  1  0.17748200  0.37369800  0.98127800  1
  Li  Li5  1  0.17747800  0.87369400  0.48127300  1
  Li  Li6  1  0.82251800  0.62630200  0.01872300  1
  Li  Li7  1  0.82252100  0.12630500  0.51872700  1
  Li  Li8  1  0.82252800  0.34124000  0.30379400  1
  Li  Li9  1  0.82252500  0.84123500  0.80379200  1
  Cr  Cr10  1  0.50000000  0.50000000  0.50000000  1
  Cr  Cr11  1  0.50000000  0.00000000  0.00000000  1
  S  S12  1  0.99999100  0.12129200  0.87870400  1
  S  S13  1  0.00000900  0.62126400  0.37876900  1
  S  S14  1  0.99999100  0.37873600  0.62123100  1
  S  S15  1  0.00001000  0.87870800  0.12129600  1
  S  S16  1  0.69777200  0.29663900  0.09888900  1
  S  S17  1  0.69774200  0.79663300  0.59883500  1
  S  S18  1  0.30222800  0.70336000  0.90111100  1
  S  S19  1  0.30225800  0.20336700  0.40116500  1
loop_
 _atom_site_moment_label
 _atom_site_moment_crystalaxis_x
 _atom_site_moment_crystalaxis_y
 _atom_site_moment_crystalaxis_z
  Li2  0.00000035  -0.00049972  -0.00080404
  Li3  -0.00000035  0.00049972  0.00080404
  Li4  -0.00000035  0.00049972  0.00080404
  Li5  0.00000035  -0.00049972  -0.00080404
  Li6  -0.00000035  0.00049972  0.00080404
  Li7  0.00000035  -0.00049972  -0.00080404
  Li8  0.00000035  -0.00049972  -0.00080404
  Li9  -0.00000035  0.00049972  0.00080404
  Cr10  0.00104756  -1.47517931  -2.37353270
  Cr11  -0.00104792  1.47567903  2.37433674
  S12  0.00001384  -0.01948916  -0.03135765
  S13  -0.00001384  0.01948916  0.03135765
  S14  -0.00001384  0.01948916  0.03135765
  S15  0.00001384  -0.01948916  -0.03135765
  S16  0.00000781  -0.01099388  -0.01768893
  S17  -0.00000781  0.01099388  0.01768893
  S18  0.00000781  -0.01099388  -0.01768893
  S19  -0.00000781  0.01099388  0.01768893
