# generated using pymatgen
data_Li2Fe2S3
_symmetry_space_group_name_H-M   'P 1'
_cell_length_a   6.03255692
_cell_length_b   6.06864059
_cell_length_c   7.26463628
_cell_angle_alpha   90.12623078
_cell_angle_beta   113.47988046
_cell_angle_gamma   89.63251020
_symmetry_Int_Tables_number   1
_chemical_formula_structural   Li2Fe2S3
_chemical_formula_sum   'Li4 Fe4 S6'
_cell_volume   243.92809302
_cell_formula_units_Z   2
loop_
 _symmetry_equiv_pos_site_id
 _symmetry_equiv_pos_as_xyz
  1  'x, y, z'
loop_
 _atom_site_type_symbol
 _atom_site_label
 _atom_site_symmetry_multiplicity
 _atom_site_fract_x
 _atom_site_fract_y
 _atom_site_fract_z
 _atom_site_occupancy
  Li  Li0  1  0.76921100  0.39427000  0.36281100  1
  Li  Li1  1  0.73087700  0.89454300  0.63721400  1
  Li  Li2  1  0.26915800  0.10536100  0.36271900  1
  Li  Li3  1  0.23064100  0.60566800  0.63718900  1
  Fe  Fe4  1  0.64862000  0.85552400  0.01142200  1
  Fe  Fe5  1  0.35125400  0.14440600  0.98856300  1
  Fe  Fe6  1  0.14722900  0.64309900  0.01140800  1
  Fe  Fe7  1  0.85294200  0.35710600  0.98865800  1
  S  S8  1  0.50006400  0.49988200  0.99996200  1
  S  S9  1  0.99993600  0.00011300  0.99999400  1
  S  S10  1  0.63632800  0.01476800  0.29664100  1
  S  S11  1  0.86418000  0.51455300  0.70334300  1
  S  S12  1  0.13585100  0.48548600  0.29668500  1
  S  S13  1  0.36370900  0.98522200  0.70339200  1
loop_
 _atom_site_moment_label
 _atom_site_moment_crystalaxis_x
 _atom_site_moment_crystalaxis_y
 _atom_site_moment_crystalaxis_z
  Li0  -0.00002107  0.00000229  0.00199152
  Li1  0.00002107  -0.00000229  -0.00199152
  Li2  0.00002107  -0.00000229  -0.00199152
  Li3  -0.00002107  0.00000229  0.00199152
  Fe4  0.03238892  -0.00351416  -3.06195782
  Fe5  0.03230466  -0.00350502  -3.05399175
  Fe6  -0.03233626  0.00350845  3.05697902
  Fe7  -0.03230466  0.00350502  3.05399175
  S8  -0.00002107  0.00000229  0.00199152
  S9  -0.00002107  0.00000229  0.00199152
  S10  0.00124289  -0.00013485  -0.11749952
  S11  -0.00123236  0.00013371  0.11650376
  S12  -0.00123236  0.00013371  0.11650376
  S13  0.00124289  -0.00013485  -0.11749952
