# generated using pymatgen
data_LiVS2
_symmetry_space_group_name_H-M   'P 1'
_cell_length_a   5.90720346
_cell_length_b   6.99482126
_cell_length_c   6.79211405
_cell_angle_alpha   104.12820998
_cell_angle_beta   89.51235674
_cell_angle_gamma   65.40518711
_symmetry_Int_Tables_number   1
_chemical_formula_structural   LiVS2
_chemical_formula_sum   'Li4 V4 S8'
_cell_volume   245.53115731
_cell_formula_units_Z   4
loop_
 _symmetry_equiv_pos_site_id
 _symmetry_equiv_pos_as_xyz
  1  'x, y, z'
loop_
 _atom_site_type_symbol
 _atom_site_label
 _atom_site_symmetry_multiplicity
 _atom_site_fract_x
 _atom_site_fract_y
 _atom_site_fract_z
 _atom_site_occupancy
  Li  Li0  1  0.24985000  0.50000700  0.87504200  1
  Li  Li1  1  0.74982200  0.50022300  0.62515300  1
  Li  Li2  1  0.25004700  0.50006100  0.37501700  1
  Li  Li3  1  0.75033700  0.49965700  0.12482200  1
  V  V4  1  0.52248700  0.99866600  0.75055200  1
  V  V5  1  0.97769100  0.00137500  0.49952900  1
  V  V6  1  0.52238100  0.99865000  0.24993000  1
  V  V7  1  0.97739900  0.00135100  0.00000100  1
  S  S8  1  0.22372800  0.21939900  0.55587900  1
  S  S9  1  0.71107900  0.24227300  0.30912300  1
  S  S10  1  0.22339100  0.21954200  0.05599500  1
  S  S11  1  0.71144100  0.24209600  0.80911000  1
  S  S12  1  0.27627100  0.78069400  0.69414900  1
  S  S13  1  0.78857400  0.75802400  0.44084200  1
  S  S14  1  0.27653300  0.78038000  0.19396400  1
  S  S15  1  0.78896800  0.75760100  0.94089200  1
loop_
 _atom_site_moment_label
 _atom_site_moment_crystalaxis_x
 _atom_site_moment_crystalaxis_y
 _atom_site_moment_crystalaxis_z
  Li1  -0.00096090  0.00228596  0.00056050
  Li3  0.00096090  -0.00228596  -0.00056050
  V4  0.70097821  -1.66760638  -0.40888648
  V5  0.69761505  -1.65960552  -0.40692472
  V6  -0.69857595  1.66189148  0.40748522
  V7  -0.70049776  1.66646340  0.40860623
  S8  -0.00384361  0.00914383  0.00224201
  S9  0.01489399  -0.03543235  -0.00868779
  S10  0.00384361  -0.00914383  -0.00224201
  S11  -0.01489399  0.03543235  0.00868779
  S12  -0.00432406  0.01028681  0.00252226
  S13  -0.01489399  0.03543235  0.00868779
  S14  0.00384361  -0.00914383  -0.00224201
  S15  0.01489399  -0.03543235  -0.00868779
