# generated using pymatgen
data_Li2FeS2
_symmetry_space_group_name_H-M   'P 1'
_cell_length_a   6.72112498
_cell_length_b   7.25997707
_cell_length_c   7.25311697
_cell_angle_alpha   63.90340707
_cell_angle_beta   90.06488088
_cell_angle_gamma   90.01334945
_symmetry_Int_Tables_number   1
_chemical_formula_structural   Li2FeS2
_chemical_formula_sum   'Li8 Fe4 S8'
_cell_volume   317.83661591
_cell_formula_units_Z   4
loop_
 _symmetry_equiv_pos_site_id
 _symmetry_equiv_pos_as_xyz
  1  'x, y, z'
loop_
 _atom_site_type_symbol
 _atom_site_label
 _atom_site_symmetry_multiplicity
 _atom_site_fract_x
 _atom_site_fract_y
 _atom_site_fract_z
 _atom_site_occupancy
  Li  Li0  1  0.50013000  0.57893600  0.07628400  1
  Li  Li1  1  0.49983700  0.07956400  0.57561900  1
  Li  Li2  1  0.00054700  0.32707600  0.32953200  1
  Li  Li3  1  0.00071900  0.82635700  0.83000900  1
  Li  Li4  1  0.16794000  0.72865400  0.23018700  1
  Li  Li5  1  0.16880700  0.22883000  0.72956300  1
  Li  Li6  1  0.66631200  0.48015100  0.47763900  1
  Li  Li7  1  0.66731800  0.97912400  0.97746000  1
  Fe  Fe8  1  0.33210900  0.18560700  0.18112600  1
  Fe  Fe9  1  0.83260200  0.93123500  0.43609700  1
  Fe  Fe10  1  0.33234700  0.68568400  0.68134200  1
  Fe  Fe11  1  0.83239200  0.43105600  0.93592900  1
  S  S12  1  0.50046600  0.38119400  0.88322300  1
  S  S13  1  0.50020400  0.88126000  0.38264700  1
  S  S14  1  0.00112800  0.13337900  0.13169600  1
  S  S15  1  0.00102200  0.63237800  0.63217900  1
  S  S16  1  0.33246300  0.87855400  0.87630900  1
  S  S17  1  0.33234800  0.37808100  0.37606400  1
  S  S18  1  0.83231900  0.62642900  0.12829900  1
  S  S19  1  0.83232200  0.12644900  0.62879600  1
loop_
 _atom_site_moment_label
 _atom_site_moment_crystalaxis_x
 _atom_site_moment_crystalaxis_y
 _atom_site_moment_crystalaxis_z
  Li4  0.00000087  0.00117816  0.00117895
  Li5  -0.00000087  -0.00117816  -0.00117895
  Li6  -0.00000087  -0.00117816  -0.00117895
  Li7  0.00000087  0.00117816  0.00117895
  Fe8  -0.00133952  -1.81260272  -1.81382125
  Fe9  -0.00125507  -1.69832097  -1.69946268
  Fe10  0.00129425  1.75133827  1.75251562
  Fe11  0.00129642  1.75428368  1.75546301
  S12  0.00001654  0.02238508  0.02240013
  S13  -0.00001524  -0.02061784  -0.02063170
  S14  -0.00001437  -0.01943968  -0.01945275
  S15  0.00001698  0.02297417  0.02298961
  S16  0.00002699  0.03652303  0.03654758
  S17  -0.00002656  -0.03593395  -0.03595811
  S18  0.00002699  0.03652303  0.03654758
  S19  -0.00002612  -0.03534487  -0.03536863
