# generated using pymatgen
data_Li5FeS4
_symmetry_space_group_name_H-M   'P 1'
_cell_length_a   7.69092166
_cell_length_b   9.44958108
_cell_length_c   9.44771302
_cell_angle_alpha   84.83052671
_cell_angle_beta   88.37073715
_cell_angle_gamma   91.63808726
_symmetry_Int_Tables_number   1
_chemical_formula_structural   Li5FeS4
_chemical_formula_sum   'Li20 Fe4 S16'
_cell_volume   683.21796235
_cell_formula_units_Z   4
loop_
 _symmetry_equiv_pos_site_id
 _symmetry_equiv_pos_as_xyz
  1  'x, y, z'
loop_
 _atom_site_type_symbol
 _atom_site_label
 _atom_site_symmetry_multiplicity
 _atom_site_fract_x
 _atom_site_fract_y
 _atom_site_fract_z
 _atom_site_occupancy
  Li  Li0  1  0.75007900  0.25898500  0.75866700  1
  Li  Li1  1  0.99997400  0.50872900  0.50844100  1
  Li  Li2  1  0.24975600  0.75879000  0.25890400  1
  Li  Li3  1  0.50009900  0.00831800  0.00887900  1
  Li  Li4  1  0.90159100  0.52507100  0.12698800  1
  Li  Li5  1  0.14980700  0.77320100  0.87638600  1
  Li  Li6  1  0.40160500  0.02479500  0.62694900  1
  Li  Li7  1  0.64968800  0.27337800  0.37643200  1
  Li  Li8  1  0.35018200  0.37646100  0.27328600  1
  Li  Li9  1  0.59842400  0.62700000  0.02490600  1
  Li  Li10  1  0.85031800  0.87622100  0.77320700  1
  Li  Li11  1  0.09846500  0.12681300  0.52499000  1
  Li  Li12  1  0.42690900  0.36539000  0.97838000  1
  Li  Li13  1  0.67041900  0.61147800  0.73113100  1
  Li  Li14  1  0.92677700  0.86506700  0.47793200  1
  Li  Li15  1  0.17044300  0.11125800  0.23098300  1
  Li  Li16  1  0.82951200  0.23095200  0.11154300  1
  Li  Li17  1  0.07308200  0.47840000  0.86533800  1
  Li  Li18  1  0.32951600  0.73110200  0.61139200  1
  Li  Li19  1  0.57329000  0.97809900  0.36499100  1
  Fe  Fe20  1  0.64843900  0.65522500  0.41217600  1
  Fe  Fe21  1  0.85130700  0.91218700  0.15515800  1
  Fe  Fe22  1  0.14836300  0.15531900  0.91215800  1
  Fe  Fe23  1  0.35188500  0.41198300  0.65517200  1
  S  S24  1  0.62691000  0.40397800  0.15350200  1
  S  S25  1  0.87319200  0.65342700  0.90390600  1
  S  S26  1  0.12676900  0.90376600  0.65321300  1
  S  S27  1  0.37320700  0.15339900  0.40393000  1
  S  S28  1  0.12996100  0.32462900  0.07620700  1
  S  S29  1  0.36998700  0.57607200  0.82448800  1
  S  S30  1  0.63007100  0.82428400  0.57578900  1
  S  S31  1  0.86985200  0.07568200  0.32412000  1
  S  S32  1  0.81822900  0.05437300  0.94456000  1
  S  S33  1  0.06231900  0.30295500  0.69643400  1
  S  S34  1  0.31763900  0.55472400  0.44433200  1
  S  S35  1  0.56224400  0.80305100  0.19614800  1
  S  S36  1  0.43804800  0.19629400  0.80326400  1
  S  S37  1  0.68205500  0.44450400  0.55467400  1
  S  S38  1  0.93742800  0.69654500  0.30289200  1
  S  S39  1  0.18215800  0.94441100  0.05446900  1
loop_
 _atom_site_moment_label
 _atom_site_moment_crystalaxis_x
 _atom_site_moment_crystalaxis_y
 _atom_site_moment_crystalaxis_z
  Li0  0.00024933  0.00027296  0.00090010
  Li2  -0.00049867  -0.00054592  -0.00180020
  Li5  0.00049867  0.00054592  0.00180020
  Li7  -0.00049867  -0.00054592  -0.00180020
  Li8  0.00049867  0.00054592  0.00180020
  Li10  -0.00049867  -0.00054592  -0.00180020
  Fe20  -0.86892896  -0.95127083  -3.13684671
  Fe21  -0.86618629  -0.94826825  -3.12694561
  Fe22  0.87491297  0.95782191  3.15844909
  Fe23  0.87142230  0.95400045  3.14584770
  S24  -0.00249334  -0.00272962  -0.00900099
  S25  -0.00249334  -0.00272962  -0.00900099
  S26  0.00224401  0.00245665  0.00810090
  S27  0.00224401  0.00245665  0.00810090
  S28  0.03989344  0.04367384  0.14401592
  S29  0.04014277  0.04394680  0.14491602
  S30  -0.04064144  -0.04449272  -0.14671622
  S31  -0.04089077  -0.04476569  -0.14761632
  S32  -0.02219073  -0.02429357  -0.08010885
  S33  0.03266275  0.03575796  0.11791303
  S34  0.02044539  0.02238284  0.07380816
  S35  -0.03366009  -0.03684980  -0.12151343
  S36  0.03266275  0.03575796  0.11791303
  S37  -0.02144272  -0.02347469  -0.07740856
  S38  -0.03366009  -0.03684980  -0.12151343
  S39  0.02019605  0.02210988  0.07290806
