# generated using pymatgen
data_RbFeSe2
_symmetry_space_group_name_H-M   'P 1'
_cell_length_a   5.61104922
_cell_length_b   7.22179288
_cell_length_c   7.22178312
_cell_angle_alpha   116.71198818
_cell_angle_beta   101.11899359
_cell_angle_gamma   101.11900627
_symmetry_Int_Tables_number   1
_chemical_formula_structural   RbFeSe2
_chemical_formula_sum   'Rb2 Fe2 Se4'
_cell_volume   243.10783978
_cell_formula_units_Z   2
loop_
 _symmetry_equiv_pos_site_id
 _symmetry_equiv_pos_as_xyz
  1  'x, y, z'
loop_
 _atom_site_type_symbol
 _atom_site_label
 _atom_site_symmetry_multiplicity
 _atom_site_fract_x
 _atom_site_fract_y
 _atom_site_fract_z
 _atom_site_occupancy
  Rb  Rb0  1  0.75000000  0.85952400  0.14047700  1
  Rb  Rb1  1  0.25000000  0.14047700  0.85952400  1
  Fe  Fe2  1  0.25000000  0.50141400  0.49858500  1
  Fe  Fe3  1  0.75000000  0.49858600  0.50141400  1
  Se  Se4  1  0.90419600  0.42030500  0.20224100  1
  Se  Se5  1  0.59580400  0.79775800  0.57969500  1
  Se  Se6  1  0.09579700  0.57969600  0.79775900  1
  Se  Se7  1  0.40420400  0.20224100  0.42030500  1
loop_
 _atom_site_moment_label
 _atom_site_moment_crystalaxis_x
 _atom_site_moment_crystalaxis_y
 _atom_site_moment_crystalaxis_z
  Rb0  0.00000251  0.00000048  -0.00099930
  Rb1  -0.00000251  -0.00000048  0.00099930
  Fe2  0.00743154  0.00142347  -2.95991874
  Fe3  -0.00742653  -0.00142251  2.95792014
  Se6  -0.00000251  -0.00000048  0.00099930
  Se7  -0.00000251  -0.00000048  0.00099930
