# generated using pymatgen
data_Li2CuS2
_symmetry_space_group_name_H-M   'P 1'
_cell_length_a   5.62660522
_cell_length_b   11.25388531
_cell_length_c   5.83717647
_cell_angle_alpha   89.82227627
_cell_angle_beta   89.80152829
_cell_angle_gamma   90.02317452
_symmetry_Int_Tables_number   1
_chemical_formula_structural   Li2CuS2
_chemical_formula_sum   'Li8 Cu4 S8'
_cell_volume   369.61281497
_cell_formula_units_Z   4
loop_
 _symmetry_equiv_pos_site_id
 _symmetry_equiv_pos_as_xyz
  1  'x, y, z'
loop_
 _atom_site_type_symbol
 _atom_site_label
 _atom_site_symmetry_multiplicity
 _atom_site_fract_x
 _atom_site_fract_y
 _atom_site_fract_z
 _atom_site_occupancy
  Li  Li0  1  0.49732300  0.49870900  0.76225600  1
  Li  Li1  1  0.49738600  0.99871900  0.76230000  1
  Li  Li2  1  0.99737000  0.24860300  0.76227900  1
  Li  Li3  1  0.99741400  0.74875500  0.76229900  1
  Li  Li4  1  0.49768800  0.49634400  0.26239200  1
  Li  Li5  1  0.49773500  0.99634400  0.26242800  1
  Li  Li6  1  0.99277100  0.24883900  0.26240000  1
  Li  Li7  1  0.99277400  0.74885800  0.26242800  1
  Cu  Cu8  1  0.99878300  0.49946900  0.26221000  1
  Cu  Cu9  1  0.99849400  0.99918800  0.76354000  1
  Cu  Cu10  1  0.99900900  0.99955900  0.26213500  1
  Cu  Cu11  1  0.99843700  0.49919700  0.76348900  1
  S  S12  1  0.22524400  0.11264400  0.51122700  1
  S  S13  1  0.22513200  0.61254300  0.51126600  1
  S  S14  1  0.77166700  0.38586500  0.51426900  1
  S  S15  1  0.77170800  0.88580300  0.51419400  1
  S  S16  1  0.76923000  0.11205800  0.01275800  1
  S  S17  1  0.76926100  0.61197300  0.01272100  1
  S  S18  1  0.22395400  0.38467700  0.01255900  1
  S  S19  1  0.22407100  0.88457900  0.01265300  1
loop_
 _atom_site_moment_label
 _atom_site_moment_crystalaxis_x
 _atom_site_moment_crystalaxis_y
 _atom_site_moment_crystalaxis_z
  Cu8  -0.00013012  -0.00006444  0.36300062
  Cu9  -0.00012546  -0.00006213  0.35000060
  Cu10  -0.00012582  -0.00006231  0.35100060
  Cu11  -0.00012976  -0.00006426  0.36200062
  S12  -0.00006631  -0.00003284  0.18500032
  S13  -0.00006882  -0.00003408  0.19200033
  S14  -0.00006882  -0.00003408  0.19200033
  S15  -0.00006667  -0.00003302  0.18600032
  S16  -0.00006560  -0.00003248  0.18300031
  S17  -0.00006811  -0.00003373  0.19000033
  S18  -0.00006811  -0.00003373  0.19000033
  S19  -0.00006560  -0.00003248  0.18300031
