# generated using pymatgen
data_Li3(CrS2)4
_symmetry_space_group_name_H-M   'P 1'
_cell_length_a   6.89509674
_cell_length_b   11.70259902
_cell_length_c   7.65173649
_cell_angle_alpha   104.95571455
_cell_angle_beta   116.78365957
_cell_angle_gamma   90.06629320
_symmetry_Int_Tables_number   1
_chemical_formula_structural   Li3(CrS2)4
_chemical_formula_sum   'Li6 Cr8 S16'
_cell_volume   527.55056874
_cell_formula_units_Z   2
loop_
 _symmetry_equiv_pos_site_id
 _symmetry_equiv_pos_as_xyz
  1  'x, y, z'
loop_
 _atom_site_type_symbol
 _atom_site_label
 _atom_site_symmetry_multiplicity
 _atom_site_fract_x
 _atom_site_fract_y
 _atom_site_fract_z
 _atom_site_occupancy
  Li  Li0  1  0.03272800  0.67756300  0.57622600  1
  Li  Li1  1  0.53309900  0.17719600  0.57573300  1
  Li  Li2  1  0.28686200  0.92959700  0.57361100  1
  Li  Li3  1  0.78692400  0.42991800  0.57398100  1
  Li  Li4  1  0.54343200  0.67758500  0.57630900  1
  Li  Li5  1  0.04269800  0.17712100  0.57574600  1
  Cr  Cr6  1  0.00364000  0.01036400  0.00704900  1
  Cr  Cr7  1  0.50339200  0.51052500  0.00697000  1
  Cr  Cr8  1  0.50756600  0.98996600  0.01527600  1
  Cr  Cr9  1  0.76899200  0.25734700  0.01765500  1
  Cr  Cr10  1  0.24874400  0.25730300  0.01762700  1
  Cr  Cr11  1  0.00739600  0.48958400  0.01506700  1
  Cr  Cr12  1  0.26944300  0.75689000  0.01803600  1
  Cr  Cr13  1  0.74866100  0.75654700  0.01806900  1
  S  S14  1  0.40594400  0.13368300  0.81210100  1
  S  S15  1  0.90623800  0.63348400  0.81266700  1
  S  S16  1  0.11635700  0.36645700  0.23205400  1
  S  S17  1  0.61629000  0.86659400  0.23218800  1
  S  S18  1  0.14719000  0.88376100  0.80058600  1
  S  S19  1  0.64663200  0.38406100  0.80003600  1
  S  S20  1  0.39690800  0.63644500  0.79442900  1
  S  S21  1  0.89715600  0.13682800  0.79476700  1
  S  S22  1  0.65307000  0.88371300  0.80073800  1
  S  S23  1  0.15285000  0.38397400  0.79997800  1
  S  S24  1  0.10284800  0.87058300  0.20535500  1
  S  S25  1  0.60316300  0.37106400  0.20575000  1
  S  S26  1  0.86129800  0.61717800  0.21301100  1
  S  S27  1  0.36108200  0.11774100  0.21264700  1
  S  S28  1  0.35189900  0.61732200  0.21283000  1
  S  S29  1  0.85202400  0.11778200  0.21256700  1
loop_
 _atom_site_moment_label
 _atom_site_moment_crystalaxis_x
 _atom_site_moment_crystalaxis_y
 _atom_site_moment_crystalaxis_z
  Li2  0.00089848  0.00156539  0.00199199
  Li3  -0.00089848  -0.00156539  -0.00199199
  Li4  -0.00044924  -0.00078270  -0.00099599
  Li5  0.00044924  0.00078270  0.00099599
  Cr6  1.17925220  2.05457883  2.61448235
  Cr7  -1.17610753  -2.04909995  -2.60751039
  Cr8  -1.15095015  -2.00526894  -2.55173477
  Cr9  -1.16847047  -2.03579411  -2.59057851
  Cr10  -1.16622427  -2.03188063  -2.58559854
  Cr11  1.14870396  2.00135546  2.54675480
  Cr12  1.16757199  2.03422872  2.58858652
  Cr13  1.16667351  2.03266332  2.58659453
  S14  0.01302793  0.02269820  0.02888380
  S15  -0.01302793  -0.02269820  -0.02888380
  S16  0.02246195  0.03913483  0.04979966
  S17  -0.02201271  -0.03835214  -0.04880367
  S18  -0.00943402  -0.01643663  -0.02091586
  S19  0.00943402  0.01643663  0.02091586
  S20  -0.00449239  -0.00782697  -0.00995993
  S21  0.00404315  0.00704427  0.00896394
  S22  -0.00898478  -0.01565393  -0.01991987
  S23  0.00898478  0.01565393  0.01991987
  S24  -0.03189596  -0.05557147  -0.07071552
  S25  0.03144673  0.05478877  0.06971953
  S26  -0.00718782  -0.01252315  -0.01593589
  S27  0.00718782  0.01252315  0.01593589
  S28  -0.00718782  -0.01252315  -0.01593589
  S29  0.00718782  0.01252315  0.01593589
