# generated using pymatgen
data_Li(Fe3P2)2
_symmetry_space_group_name_H-M   'P 1'
_cell_length_a   6.32781705
_cell_length_b   7.46666204
_cell_length_c   6.75241063
_cell_angle_alpha   116.79940226
_cell_angle_beta   89.99385882
_cell_angle_gamma   64.92068978
_symmetry_Int_Tables_number   1
_chemical_formula_structural   Li(Fe3P2)2
_chemical_formula_sum   'Li2 Fe12 P8'
_cell_volume   250.60228312
_cell_formula_units_Z   2
loop_
 _symmetry_equiv_pos_site_id
 _symmetry_equiv_pos_as_xyz
  1  'x, y, z'
loop_
 _atom_site_type_symbol
 _atom_site_label
 _atom_site_symmetry_multiplicity
 _atom_site_fract_x
 _atom_site_fract_y
 _atom_site_fract_z
 _atom_site_occupancy
  Li  Li0  1  0.50225900  0.99576000  0.99796200  1
  Li  Li1  1  0.99817800  0.00333200  0.00159100  1
  Fe  Fe2  1  0.03775700  0.92474000  0.46246000  1
  Fe  Fe3  1  0.22742200  0.54424700  0.46662500  1
  Fe  Fe4  1  0.22753700  0.54427200  0.07763800  1
  Fe  Fe5  1  0.93169700  0.60254100  0.80130400  1
  Fe  Fe6  1  0.46543500  0.60252800  0.80127700  1
  Fe  Fe7  1  0.15954900  0.19812700  0.80055000  1
  Fe  Fe8  1  0.64227900  0.19831000  0.80086300  1
  Fe  Fe9  1  0.15945300  0.19801000  0.39753900  1
  Fe  Fe10  1  0.64266000  0.19831000  0.39744800  1
  Fe  Fe11  1  0.53755600  0.92499900  0.46253500  1
  Fe  Fe12  1  0.73399100  0.53283400  0.45606700  1
  Fe  Fe13  1  0.73393600  0.53271500  0.07668900  1
  P  P14  1  0.32240400  0.35512800  0.67756900  1
  P  P15  1  0.84150200  0.31706000  0.65863100  1
  P  P16  1  0.84015700  0.82165100  0.64490500  1
  P  P17  1  0.33837200  0.82128100  0.64464900  1
  P  P18  1  0.84029000  0.82152100  0.17663900  1
  P  P19  1  0.33846400  0.82105600  0.17653100  1
  P  P20  1  0.08157700  0.35393600  0.17681700  1
  P  P21  1  0.56419200  0.35430800  0.17704600  1
loop_
 _atom_site_moment_label
 _atom_site_moment_crystalaxis_x
 _atom_site_moment_crystalaxis_y
 _atom_site_moment_crystalaxis_z
  Li0  -0.00093494  0.00220605  -0.00000387
  Fe2  -0.31086856  0.73351219  -0.00128752
  Fe3  -0.29684441  0.70042141  -0.00122944
  Fe4  -0.29544200  0.69711234  -0.00122363
  Fe5  -0.13883904  0.32759868  -0.00057503
  Fe6  -0.13276191  0.31325934  -0.00054986
  Fe7  -0.30899867  0.72910009  -0.00127977
  Fe8  -0.30666131  0.72358496  -0.00127009
  Fe9  -0.31086856  0.73351219  -0.00128752
  Fe10  -0.30712878  0.72468798  -0.00127203
  Fe11  -0.85500540  2.01743428  -0.00354116
  Fe12  -0.84752585  1.99978587  -0.00351018
  Fe13  -0.84378608  1.99096166  -0.00349469
  P14  0.01355667  -0.03198775  0.00005615
  P15  0.01449162  -0.03419380  0.00006002
  P16  0.02056875  -0.04853314  0.00008519
  P17  0.02056875  -0.04853314  0.00008519
  P18  0.02056875  -0.04853314  0.00008519
  P19  0.02056875  -0.04853314  0.00008519
  P20  0.02197116  -0.05184221  0.00009100
  P21  0.02243863  -0.05294524  0.00009293
