# generated using pymatgen
data_Li3(FeS2)2
_symmetry_space_group_name_H-M   'P 1'
_cell_length_a   6.41710152
_cell_length_b   7.18024558
_cell_length_c   7.18963898
_cell_angle_alpha   108.18044035
_cell_angle_beta   89.52643489
_cell_angle_gamma   90.42336883
_symmetry_Int_Tables_number   1
_chemical_formula_structural   Li3(FeS2)2
_chemical_formula_sum   'Li6 Fe4 S8'
_cell_volume   314.72006770
_cell_formula_units_Z   2
loop_
 _symmetry_equiv_pos_site_id
 _symmetry_equiv_pos_as_xyz
  1  'x, y, z'
loop_
 _atom_site_type_symbol
 _atom_site_label
 _atom_site_symmetry_multiplicity
 _atom_site_fract_x
 _atom_site_fract_y
 _atom_site_fract_z
 _atom_site_occupancy
  Li  Li0  1  0.75022300  0.39985100  0.39994300  1
  Li  Li1  1  0.24994500  0.60012000  0.60006900  1
  Li  Li2  1  0.05303200  0.76100800  0.00075300  1
  Li  Li3  1  0.55293300  0.99945600  0.23902200  1
  Li  Li4  1  0.44670300  0.00072200  0.76095500  1
  Li  Li5  1  0.94703400  0.23887100  0.99924400  1
  Fe  Fe6  1  0.08972400  0.17735100  0.57281600  1
  Fe  Fe7  1  0.91024800  0.82260400  0.42704100  1
  Fe  Fe8  1  0.58956100  0.42710000  0.82273300  1
  Fe  Fe9  1  0.41052200  0.57290800  0.17728600  1
  S  S10  1  0.92240400  0.44735400  0.74413900  1
  S  S11  1  0.42253200  0.25595000  0.55278600  1
  S  S12  1  0.57746100  0.74408800  0.44733700  1
  S  S13  1  0.07765600  0.55254400  0.25587500  1
  S  S14  1  0.94145900  0.05652700  0.27110800  1
  S  S15  1  0.44128700  0.72908900  0.94367200  1
  S  S16  1  0.55874200  0.27092500  0.05636100  1
  S  S17  1  0.05853600  0.94353000  0.72885800  1
loop_
 _atom_site_moment_label
 _atom_site_moment_crystalaxis_x
 _atom_site_moment_crystalaxis_y
 _atom_site_moment_crystalaxis_z
  Li2  0.00001075  -0.00007190  -0.00202133
  Li3  -0.00001075  0.00007190  0.00202133
  Li4  -0.00001075  0.00007190  0.00202133
  Li5  0.00001075  -0.00007190  -0.00202133
  Fe6  0.01650930  -0.11044533  -3.10475670
  Fe7  0.01654155  -0.11066104  -3.11082068
  Fe8  -0.01654155  0.11066104  3.11082068
  Fe9  -0.01656842  0.11084080  3.11587399
  S10  0.00004837  -0.00032357  -0.00909597
  S11  -0.00003224  0.00021571  0.00606398
  S12  -0.00003224  0.00021571  0.00606398
  S13  0.00004837  -0.00032357  -0.00909597
  S14  0.00083299  -0.00557260  -0.15665276
  S15  -0.00082761  0.00553665  0.15564210
  S16  -0.00082761  0.00553665  0.15564210
  S17  0.00083836  -0.00560855  -0.15766343
