# generated using pymatgen
data_Li5FeS4
_symmetry_space_group_name_H-M   'P 1'
_cell_length_a   9.74374536
_cell_length_b   9.74387221
_cell_length_c   9.84315854
_cell_angle_alpha   69.03696139
_cell_angle_beta   69.00312374
_cell_angle_gamma   106.05889879
_symmetry_Int_Tables_number   1
_chemical_formula_structural   Li5FeS4
_chemical_formula_sum   'Li20 Fe4 S16'
_cell_volume   721.56636031
_cell_formula_units_Z   4
loop_
 _symmetry_equiv_pos_site_id
 _symmetry_equiv_pos_as_xyz
  1  'x, y, z'
loop_
 _atom_site_type_symbol
 _atom_site_label
 _atom_site_symmetry_multiplicity
 _atom_site_fract_x
 _atom_site_fract_y
 _atom_site_fract_z
 _atom_site_occupancy
  Li  Li0  1  0.35228900  0.85226600  0.00003700  1
  Li  Li1  1  0.85231800  0.35234200  0.99993000  1
  Li  Li2  1  0.14770100  0.14773900  0.49998500  1
  Li  Li3  1  0.64770800  0.64766700  0.50005300  1
  Li  Li4  1  0.35763100  0.60132400  0.78762200  1
  Li  Li5  1  0.85760600  0.10142800  0.78750600  1
  Li  Li6  1  0.10137000  0.85782600  0.78752100  1
  Li  Li7  1  0.60148500  0.35783700  0.78741600  1
  Li  Li8  1  0.64534400  0.88888600  0.21248000  1
  Li  Li9  1  0.14525300  0.38889700  0.21258100  1
  Li  Li10  1  0.38893400  0.14524600  0.21238800  1
  Li  Li11  1  0.88893100  0.64511000  0.21249000  1
  Li  Li12  1  0.35473100  0.61108700  0.28744800  1
  Li  Li13  1  0.85465900  0.11111900  0.28750000  1
  Li  Li14  1  0.11104300  0.85476400  0.28761400  1
  Li  Li15  1  0.61108500  0.35487100  0.28751400  1
  Li  Li16  1  0.14238200  0.39865500  0.71238200  1
  Li  Li17  1  0.64237800  0.89858700  0.71248700  1
  Li  Li18  1  0.89852900  0.64217800  0.71255300  1
  Li  Li19  1  0.39861800  0.14216400  0.71249900  1
  Fe  Fe20  1  0.11418200  0.11418900  0.00000900  1
  Fe  Fe21  1  0.38577600  0.88578100  0.49999300  1
  Fe  Fe22  1  0.61419400  0.61419500  0.00000400  1
  Fe  Fe23  1  0.88584300  0.38584200  0.49999200  1
  S  S24  1  0.62709600  0.62715900  0.76029200  1
  S  S25  1  0.12700000  0.12727800  0.76030600  1
  S  S26  1  0.88757200  0.88729600  0.23970600  1
  S  S27  1  0.38745000  0.38738700  0.23970400  1
  S  S28  1  0.61243100  0.11267700  0.26027600  1
  S  S29  1  0.11253800  0.61263600  0.26028000  1
  S  S30  1  0.37296900  0.87271600  0.73971200  1
  S  S31  1  0.87292300  0.37282000  0.73971600  1
  S  S32  1  0.59920500  0.84369700  0.99986600  1
  S  S33  1  0.09911900  0.34365800  0.00000100  1
  S  S34  1  0.34365600  0.09911900  0.00000700  1
  S  S35  1  0.84356300  0.59906800  0.00014000  1
  S  S36  1  0.40088800  0.65632900  0.50002300  1
  S  S37  1  0.90081400  0.15631700  0.50010700  1
  S  S38  1  0.15635300  0.90091700  0.49997300  1
  S  S39  1  0.65642600  0.40092400  0.49988800  1
loop_
 _atom_site_moment_label
 _atom_site_moment_crystalaxis_x
 _atom_site_moment_crystalaxis_y
 _atom_site_moment_crystalaxis_z
  Fe20  2.17995387  2.17901720  -4.40338743
  Fe21  2.18180233  2.18086487  -4.40712122
  Fe22  -2.18241849  -2.18148076  4.40836582
  Fe23  -2.18611541  -2.18517610  4.41583341
  S24  -0.09303930  -0.09299932  0.18793429
  S25  0.09303930  0.09299932  -0.18793429
  S26  0.09303930  0.09299932  -0.18793429
  S27  -0.09303930  -0.09299932  0.18793429
  S28  0.09303930  0.09299932  -0.18793429
  S29  -0.09242314  -0.09238343  0.18668969
  S30  0.09303930  0.09299932  -0.18793429
  S31  -0.09242314  -0.09238343  0.18668969
  S32  -0.09057468  -0.09053576  0.18295589
  S33  0.09119083  0.09115165  -0.18420049
  S34  0.09119083  0.09115165  -0.18420049
  S35  -0.09057468  -0.09053576  0.18295589
  S36  0.09057468  0.09053576  -0.18295589
  S37  -0.08995853  -0.08991987  0.18171130
  S38  0.09057468  0.09053576  -0.18295589
  S39  -0.08995853  -0.08991987  0.18171130
