# generated using pymatgen
data_Li3FeS3
_symmetry_space_group_name_H-M   'P 1'
_cell_length_a   6.51252116
_cell_length_b   9.22586412
_cell_length_c   8.81550032
_cell_angle_alpha   97.30034411
_cell_angle_beta   73.92424728
_cell_angle_gamma   103.50843290
_symmetry_Int_Tables_number   1
_chemical_formula_structural   Li3FeS3
_chemical_formula_sum   'Li12 Fe4 S12'
_cell_volume   493.77094395
_cell_formula_units_Z   4
loop_
 _symmetry_equiv_pos_site_id
 _symmetry_equiv_pos_as_xyz
  1  'x, y, z'
loop_
 _atom_site_type_symbol
 _atom_site_label
 _atom_site_symmetry_multiplicity
 _atom_site_fract_x
 _atom_site_fract_y
 _atom_site_fract_z
 _atom_site_occupancy
  Li  Li0  1  0.18361800  0.08366200  0.42481800  1
  Li  Li1  1  0.68380800  0.58364600  0.92514700  1
  Li  Li2  1  0.81593200  0.91634600  0.57491400  1
  Li  Li3  1  0.31618900  0.41631700  0.07528300  1
  Li  Li4  1  0.45263800  0.82795100  0.35555700  1
  Li  Li5  1  0.95262300  0.32807900  0.85567300  1
  Li  Li6  1  0.54754400  0.17215700  0.64456300  1
  Li  Li7  1  0.04747300  0.67229200  0.14457600  1
  Li  Li8  1  0.87206200  0.36797900  0.39383400  1
  Li  Li9  1  0.37199200  0.86800400  0.89384300  1
  Li  Li10  1  0.62784000  0.13195400  0.10630100  1
  Li  Li11  1  0.12819200  0.63191100  0.60636400  1
  Fe  Fe12  1  0.47725900  0.48648600  0.35013500  1
  Fe  Fe13  1  0.02278000  0.01357800  0.14979200  1
  Fe  Fe14  1  0.97717700  0.98645300  0.84975500  1
  Fe  Fe15  1  0.52292400  0.51347100  0.64999900  1
  S  S16  1  0.33952500  0.32037500  0.53363700  1
  S  S17  1  0.83943700  0.82041600  0.03365400  1
  S  S18  1  0.66071500  0.67950700  0.46612400  1
  S  S19  1  0.16065900  0.17963100  0.96606600  1
  S  S20  1  0.69413200  0.06124100  0.81452500  1
  S  S21  1  0.19451100  0.56115900  0.31459700  1
  S  S22  1  0.18523400  0.90832400  0.62051700  1
  S  S23  1  0.68520200  0.40839600  0.12091900  1
  S  S24  1  0.30551100  0.93876400  0.18547200  1
  S  S25  1  0.80593900  0.43873700  0.68551800  1
  S  S26  1  0.81454900  0.09158400  0.37909500  1
  S  S27  1  0.31452600  0.59158600  0.87932900  1
loop_
 _atom_site_moment_label
 _atom_site_moment_crystalaxis_x
 _atom_site_moment_crystalaxis_y
 _atom_site_moment_crystalaxis_z
  Li0  -0.00136957  0.00219151  0.00182047
  Li1  0.00136957  -0.00219151  -0.00182047
  Li2  0.00136957  -0.00219151  -0.00182047
  Li3  -0.00136957  0.00219151  0.00182047
  Li8  0.00182609  -0.00292201  -0.00242730
  Li9  -0.00182609  0.00292201  0.00242730
  Li10  0.00182609  -0.00292201  -0.00242730
  Li11  -0.00182609  0.00292201  0.00242730
  Fe12  1.43485016  -2.29596716  -1.90724829
  Fe13  1.44261104  -2.30838569  -1.91756430
  Fe14  -1.44352409  2.30984669  1.91877795
  Fe15  -1.43713277  2.29961967  1.91028241
  S16  -0.00776088  0.01241853  0.01031601
  S17  0.00821740  -0.01314903  -0.01092283
  S18  0.00821740  -0.01314903  -0.01092283
  S19  -0.00776088  0.01241853  0.01031601
  S20  -0.07213055  0.11541928  0.09587822
  S21  0.07258707  -0.11614979  -0.09648504
  S22  -0.06071749  0.09715674  0.08070761
  S23  0.06163053  -0.09861774  -0.08192126
  S24  0.07213055  -0.11541928  -0.09587822
  S25  -0.07258707  0.11614979  0.09648504
  S26  0.06071749  -0.09715674  -0.08070761
  S27  -0.06163053  0.09861774  0.08192126
