# generated using pymatgen
data_Li3CrS4
_symmetry_space_group_name_H-M   'P 1'
_cell_length_a   8.38854987
_cell_length_b   8.38850603
_cell_length_c   8.38854563
_cell_angle_alpha   60.00008923
_cell_angle_beta   89.99952669
_cell_angle_gamma   119.99996096
_symmetry_Int_Tables_number   1
_chemical_formula_structural   Li3CrS4
_chemical_formula_sum   'Li6 Cr2 S8'
_cell_volume   417.39018639
_cell_formula_units_Z   2
loop_
 _symmetry_equiv_pos_site_id
 _symmetry_equiv_pos_as_xyz
  1  'x, y, z'
loop_
 _atom_site_type_symbol
 _atom_site_label
 _atom_site_symmetry_multiplicity
 _atom_site_fract_x
 _atom_site_fract_y
 _atom_site_fract_z
 _atom_site_occupancy
  Li  Li0  1  0.25004900  0.00000000  0.25004900  1
  Li  Li1  1  0.74995100  0.00000000  0.74995100  1
  Li  Li2  1  0.25005100  0.50010200  0.74994900  1
  Li  Li3  1  0.74994900  0.49989800  0.25005100  1
  Li  Li4  1  0.25005000  0.00000000  0.74995000  1
  Li  Li5  1  0.74995000  0.00000000  0.25005000  1
  Cr  Cr6  1  0.50000000  0.00000000  0.50000000  1
  Cr  Cr7  1  0.00000100  0.00000000  0.00000000  1
  S  S8  1  0.31082500  0.20721700  0.89639100  1
  S  S9  1  0.81073900  0.20716000  0.39642100  1
  S  S10  1  0.89639200  0.79278200  0.89639200  1
  S  S11  1  0.39642000  0.79284000  0.39642100  1
  S  S12  1  0.89639200  0.20721700  0.89639200  1
  S  S13  1  0.39642200  0.20716000  0.39642000  1
  S  S14  1  0.89639100  0.79278300  0.31082500  1
  S  S15  1  0.39642100  0.79284100  0.81073800  1
loop_
 _atom_site_moment_label
 _atom_site_moment_crystalaxis_x
 _atom_site_moment_crystalaxis_y
 _atom_site_moment_crystalaxis_z
  Li0  0.00070710  0.00000000  0.00070710
  Li1  0.00070710  0.00000000  0.00070710
  Li2  0.00070710  0.00000000  0.00070710
  Li3  0.00070710  0.00000000  0.00070710
  Li4  0.00070710  0.00000000  0.00070710
  Li5  0.00070710  0.00000000  0.00070710
  Cr6  0.66750621  0.00000034  0.66750588
  Cr7  0.77710734  0.00000039  0.77710695
  S8  -0.01131366  0.00000000  -0.01131366
  S9  -0.02050602  -0.00000001  -0.02050601
  S10  -0.01131366  0.00000000  -0.01131366
  S11  -0.02050602  -0.00000001  -0.02050601
  S12  -0.01131366  0.00000000  -0.01131366
  S13  -0.02050602  -0.00000001  -0.02050601
  S14  -0.01131366  0.00000000  -0.01131366
  S15  -0.02050602  -0.00000001  -0.02050601
