# generated using pymatgen
data_Li2FeS2
_symmetry_space_group_name_H-M   'P 1'
_cell_length_a   5.98887820
_cell_length_b   5.38545188
_cell_length_c   10.02469947
_cell_angle_alpha   89.99938504
_cell_angle_beta   90.00045546
_cell_angle_gamma   90.83787585
_symmetry_Int_Tables_number   1
_chemical_formula_structural   Li2FeS2
_chemical_formula_sum   'Li8 Fe4 S8'
_cell_volume   323.29020924
_cell_formula_units_Z   4
loop_
 _symmetry_equiv_pos_site_id
 _symmetry_equiv_pos_as_xyz
  1  'x, y, z'
loop_
 _atom_site_type_symbol
 _atom_site_label
 _atom_site_symmetry_multiplicity
 _atom_site_fract_x
 _atom_site_fract_y
 _atom_site_fract_z
 _atom_site_occupancy
  Li  Li0  1  0.65510100  0.26838700  0.49317500  1
  Li  Li1  1  0.65507700  0.76887600  0.75680200  1
  Li  Li2  1  0.65481300  0.26856800  0.99320400  1
  Li  Li3  1  0.65481300  0.76861500  0.25680700  1
  Li  Li4  1  0.34517200  0.23136000  0.25674700  1
  Li  Li5  1  0.34491400  0.73160000  0.49315600  1
  Li  Li6  1  0.34497200  0.23115300  0.75680000  1
  Li  Li7  1  0.34511600  0.73132300  0.99322800  1
  Fe  Fe8  1  0.00008300  0.00010200  0.62066800  1
  Fe  Fe9  1  0.00006100  0.50004800  0.62937300  1
  Fe  Fe10  1  0.99994900  0.99996500  0.12060200  1
  Fe  Fe11  1  0.99994500  0.49994000  0.12937700  1
  S  S12  1  0.24064100  0.25948900  0.50431900  1
  S  S13  1  0.24063100  0.75950000  0.74569000  1
  S  S14  1  0.24079700  0.25946300  0.00410800  1
  S  S15  1  0.24077000  0.75940800  0.24588200  1
  S  S16  1  0.75914900  0.24051000  0.24590900  1
  S  S17  1  0.75944500  0.74064800  0.50438700  1
  S  S18  1  0.75942900  0.24058400  0.74565900  1
  S  S19  1  0.75912400  0.74046200  0.00410600  1
loop_
 _atom_site_moment_label
 _atom_site_moment_crystalaxis_x
 _atom_site_moment_crystalaxis_y
 _atom_site_moment_crystalaxis_z
  Fe8  -3.11012273  -0.00950220  0.00323997
  Fe9  -3.12612336  -0.00955109  0.00325664
  Fe10  3.11612296  0.00952054  -0.00324622
  Fe11  3.12512332  0.00954803  -0.00325560
  S12  -0.16500651  -0.00050414  0.00017190
  S13  -0.16500651  -0.00050414  0.00017190
  S14  0.16500651  0.00050414  -0.00017190
  S15  0.16500651  0.00050414  -0.00017190
  S16  0.16500651  0.00050414  -0.00017190
  S17  -0.16500651  -0.00050414  0.00017190
  S18  -0.16500651  -0.00050414  0.00017190
  S19  0.16500651  0.00050414  -0.00017190
