# generated using pymatgen
data_Li2FeS2
_symmetry_space_group_name_H-M   'P 1'
_cell_length_a   5.71973963
_cell_length_b   5.71966257
_cell_length_c   11.24752400
_cell_angle_alpha   89.99987910
_cell_angle_beta   89.99989937
_cell_angle_gamma   90.74105261
_symmetry_Int_Tables_number   1
_chemical_formula_structural   Li2FeS2
_chemical_formula_sum   'Li8 Fe4 S8'
_cell_volume   367.93175381
_cell_formula_units_Z   4
loop_
 _symmetry_equiv_pos_site_id
 _symmetry_equiv_pos_as_xyz
  1  'x, y, z'
loop_
 _atom_site_type_symbol
 _atom_site_label
 _atom_site_symmetry_multiplicity
 _atom_site_fract_x
 _atom_site_fract_y
 _atom_site_fract_z
 _atom_site_occupancy
  Li  Li0  1  0.00000000  0.49999900  0.37497400  1
  Li  Li1  1  0.00000000  0.50000000  0.87499200  1
  Li  Li2  1  0.50000000  0.00000000  0.37497400  1
  Li  Li3  1  0.49999900  0.00000000  0.87499200  1
  Li  Li4  1  0.00000000  0.50000000  0.12502200  1
  Li  Li5  1  0.00000100  0.50000000  0.62502800  1
  Li  Li6  1  0.50000000  0.00000000  0.12502200  1
  Li  Li7  1  0.50000100  0.99999900  0.62502800  1
  Fe  Fe8  1  0.50000000  0.50000100  0.62539300  1
  Fe  Fe9  1  0.50000100  0.50000000  0.87459100  1
  Fe  Fe10  1  0.50000000  0.50000000  0.12537800  1
  Fe  Fe11  1  0.50000000  0.50000000  0.37459300  1
  S  S12  1  0.72770100  0.27229900  0.24999800  1
  S  S13  1  0.72756800  0.27243200  0.75000600  1
  S  S14  1  0.27481700  0.27481700  0.99994200  1
  S  S15  1  0.27479000  0.27479100  0.50006100  1
  S  S16  1  0.72518300  0.72518400  0.99994100  1
  S  S17  1  0.72520900  0.72520900  0.50006000  1
  S  S18  1  0.27229900  0.72770100  0.24999800  1
  S  S19  1  0.27243200  0.72756800  0.75000700  1
loop_
 _atom_site_moment_label
 _atom_site_moment_crystalaxis_x
 _atom_site_moment_crystalaxis_y
 _atom_site_moment_crystalaxis_z
  Li1  0.00000647  0.00100006  0.00000000
  Li3  0.00000647  0.00100006  0.00000000
  Li4  -0.00000647  -0.00100006  0.00000000
  Li5  0.00000647  0.00100006  0.00000000
  Li6  -0.00000647  -0.00100006  0.00000000
  Li7  0.00000647  0.00100006  0.00000000
  Fe8  -0.01914130  -2.96018568  0.00000312
  Fe9  -0.01935470  -2.99318775  0.00000316
  Fe10  0.01924477  2.97618669  -0.00000314
  Fe11  0.01924477  2.97618669  -0.00000314
  S12  0.00089240  0.13800866  -0.00000015
  S13  -0.00089240  -0.13800866  0.00000015
  S14  0.00000647  0.00100006  0.00000000
  S15  -0.00000647  -0.00100006  0.00000000
  S16  0.00000647  0.00100006  0.00000000
  S17  -0.00000647  -0.00100006  0.00000000
  S18  0.00089240  0.13800866  -0.00000015
  S19  -0.00089240  -0.13800866  0.00000015
