# generated using pymatgen
data_Li2FeS2
_symmetry_space_group_name_H-M   'P 1'
_cell_length_a   6.38508701
_cell_length_b   6.70418191
_cell_length_c   7.91873083
_cell_angle_alpha   92.58026130
_cell_angle_beta   90.00001967
_cell_angle_gamma   89.99294810
_symmetry_Int_Tables_number   1
_chemical_formula_structural   Li2FeS2
_chemical_formula_sum   'Li8 Fe4 S8'
_cell_volume   338.63172989
_cell_formula_units_Z   4
loop_
 _symmetry_equiv_pos_site_id
 _symmetry_equiv_pos_as_xyz
  1  'x, y, z'
loop_
 _atom_site_type_symbol
 _atom_site_label
 _atom_site_symmetry_multiplicity
 _atom_site_fract_x
 _atom_site_fract_y
 _atom_site_fract_z
 _atom_site_occupancy
  Li  Li0  1  0.64531100  0.11586900  0.73885300  1
  Li  Li1  1  0.85465700  0.11583200  0.23886200  1
  Li  Li2  1  0.14527200  0.88411900  0.76111500  1
  Li  Li3  1  0.35466900  0.88416700  0.26112800  1
  Li  Li4  1  0.98540300  0.47142200  0.81936300  1
  Li  Li5  1  0.51463700  0.47144600  0.31942800  1
  Li  Li6  1  0.48566300  0.52856800  0.68053400  1
  Li  Li7  1  0.01438200  0.52854400  0.18050000  1
  Fe  Fe8  1  0.11741700  0.34777300  0.49256100  1
  Fe  Fe9  1  0.88263900  0.65240700  0.50743600  1
  Fe  Fe10  1  0.38254300  0.34779500  0.99258400  1
  Fe  Fe11  1  0.61734000  0.65244600  0.00748200  1
  S  S12  1  0.26471700  0.22614200  0.73396300  1
  S  S13  1  0.23537100  0.22612900  0.23395700  1
  S  S14  1  0.76468600  0.77375000  0.76606900  1
  S  S15  1  0.73530100  0.77378000  0.26609600  1
  S  S16  1  0.73776400  0.31264400  0.00484200  1
  S  S17  1  0.76225900  0.31270000  0.50483700  1
  S  S18  1  0.23777700  0.68723400  0.49519200  1
  S  S19  1  0.26219400  0.68723500  0.99519700  1
loop_
 _atom_site_moment_label
 _atom_site_moment_crystalaxis_x
 _atom_site_moment_crystalaxis_y
 _atom_site_moment_crystalaxis_z
  Li0  0.00000000  0.00000473  -0.00299978
  Li1  0.00000000  -0.00000473  0.00299978
  Li2  0.00000000  -0.00000473  0.00299978
  Li3  0.00000000  0.00000473  -0.00299978
  Li4  0.00000000  -0.00000631  0.00399971
  Li5  0.00000000  0.00000631  -0.00399971
  Li6  0.00000000  0.00000631  -0.00399971
  Li7  0.00000000  -0.00000631  0.00399971
  Fe8  -0.00000068  0.00481451  -3.05277947
  Fe9  -0.00000068  0.00481767  -3.05477932
  Fe10  0.00000068  -0.00481924  3.05577925
  Fe11  0.00000068  -0.00479717  3.04178026
  S12  0.00000000  -0.00001735  0.01099921
  S13  0.00000000  0.00001419  -0.00899935
  S14  0.00000000  0.00001419  -0.00899935
  S15  0.00000000  -0.00001735  0.01099921
  S16  0.00000003  -0.00019081  0.12099126
  S17  -0.00000003  0.00018766  -0.11899140
  S18  -0.00000003  0.00018766  -0.11899140
  S19  0.00000003  -0.00019081  0.12099126
