# generated using pymatgen
data_K2MnTe2
_symmetry_space_group_name_H-M   'P 1'
_cell_length_a   6.83736128
_cell_length_b   7.49331439
_cell_length_c   14.30916241
_cell_angle_alpha   90.00007980
_cell_angle_beta   90.00003573
_cell_angle_gamma   89.99997476
_symmetry_Int_Tables_number   1
_chemical_formula_structural   K2MnTe2
_chemical_formula_sum   'K8 Mn4 Te8'
_cell_volume   733.12274794
_cell_formula_units_Z   4
loop_
 _symmetry_equiv_pos_site_id
 _symmetry_equiv_pos_as_xyz
  1  'x, y, z'
loop_
 _atom_site_type_symbol
 _atom_site_label
 _atom_site_symmetry_multiplicity
 _atom_site_fract_x
 _atom_site_fract_y
 _atom_site_fract_z
 _atom_site_occupancy
  K  K0  1  0.50000100  0.82267600  0.35738700  1
  K  K1  1  0.99999900  0.32267600  0.85738800  1
  K  K2  1  0.99999900  0.67732300  0.14261200  1
  K  K3  1  0.50000200  0.17732200  0.64261200  1
  K  K4  1  0.50000200  0.32267800  0.14261200  1
  K  K5  1  0.99999800  0.82267800  0.64261200  1
  K  K6  1  0.99999800  0.17732300  0.35738800  1
  K  K7  1  0.50000200  0.67732200  0.85738700  1
  Mn  Mn8  1  0.25000000  0.49999900  0.50000000  1
  Mn  Mn9  1  0.25000100  0.00000000  0.00000000  1
  Mn  Mn10  1  0.74999900  0.00000100  0.00000000  1
  Mn  Mn11  1  0.74999900  0.49999900  0.50000100  1
  Te  Te12  1  0.00000900  0.19640400  0.10694600  1
  Te  Te13  1  0.49999400  0.69640300  0.60694600  1
  Te  Te14  1  0.49999400  0.30359600  0.39305400  1
  Te  Te15  1  0.00000900  0.80359600  0.89305400  1
  Te  Te16  1  0.00000600  0.69640400  0.39305400  1
  Te  Te17  1  0.49999100  0.19640400  0.89305400  1
  Te  Te18  1  0.49999100  0.80359600  0.10694600  1
  Te  Te19  1  0.00000600  0.30359600  0.60694600  1
loop_
 _atom_site_moment_label
 _atom_site_moment_crystalaxis_x
 _atom_site_moment_crystalaxis_y
 _atom_site_moment_crystalaxis_z
  Mn8  1.60432879  1.71736472  -3.27624585
  Mn9  1.60432879  1.71736472  -3.27624585
  Mn10  -1.60472669  -1.71779066  3.27705841
  Mn11  -1.60472669  -1.71779066  3.27705841
