# generated using pymatgen
data_K2CoSe2
_symmetry_space_group_name_H-M   'P 1'
_cell_length_a   6.35961015
_cell_length_b   6.99361630
_cell_length_c   8.10917642
_cell_angle_alpha   64.46735072
_cell_angle_beta   66.90607085
_cell_angle_gamma   90.00220615
_symmetry_Int_Tables_number   1
_chemical_formula_structural   K2CoSe2
_chemical_formula_sum   'K4 Co2 Se4'
_cell_volume   293.08719966
_cell_formula_units_Z   2
loop_
 _symmetry_equiv_pos_site_id
 _symmetry_equiv_pos_as_xyz
  1  'x, y, z'
loop_
 _atom_site_type_symbol
 _atom_site_label
 _atom_site_symmetry_multiplicity
 _atom_site_fract_x
 _atom_site_fract_y
 _atom_site_fract_z
 _atom_site_occupancy
  K  K0  1  0.14420600  0.81634700  0.71172100  1
  K  K1  1  0.85578700  0.18364900  0.28827900  1
  K  K2  1  0.35578800  0.52812700  0.28828700  1
  K  K3  1  0.64421700  0.47187100  0.71171100  1
  Co  Co4  1  0.75001200  0.99999800  0.00000100  1
  Co  Co5  1  0.24998800  0.00000600  0.99999600  1
  Se  Se6  1  0.89944400  0.71751500  0.20107500  1
  Se  Se7  1  0.10061800  0.28248800  0.79892300  1
  Se  Se8  1  0.60071000  0.91893300  0.79869700  1
  Se  Se9  1  0.39922900  0.08106600  0.20130900  1
loop_
 _atom_site_moment_label
 _atom_site_moment_crystalaxis_x
 _atom_site_moment_crystalaxis_y
 _atom_site_moment_crystalaxis_z
  Co4  1.54802613  1.72418939  -2.00040155
  Co5  -1.54647189  -1.72245827  1.99839312
