# generated using pymatgen
data_Na2CoS2
_symmetry_space_group_name_H-M   'P 1'
_cell_length_a   5.75744079
_cell_length_b   6.28231861
_cell_length_c   7.06488103
_cell_angle_alpha   63.60086366
_cell_angle_beta   114.05154224
_cell_angle_gamma   90.00529018
_symmetry_Int_Tables_number   1
_chemical_formula_structural   Na2CoS2
_chemical_formula_sum   'Na4 Co2 S4'
_cell_volume   203.82863975
_cell_formula_units_Z   2
loop_
 _symmetry_equiv_pos_site_id
 _symmetry_equiv_pos_as_xyz
  1  'x, y, z'
loop_
 _atom_site_type_symbol
 _atom_site_label
 _atom_site_symmetry_multiplicity
 _atom_site_fract_x
 _atom_site_fract_y
 _atom_site_fract_z
 _atom_site_occupancy
  Na  Na0  1  0.14327500  0.51394400  0.28666100  1
  Na  Na1  1  0.35671800  0.80060200  0.71333400  1
  Na  Na2  1  0.85661200  0.48605500  0.71334500  1
  Na  Na3  1  0.64339300  0.19940500  0.28666200  1
  Co  Co4  1  0.25003200  0.00001500  0.00002600  1
  Co  Co5  1  0.74996800  0.99998300  0.99997300  1
  S  S6  1  0.89171700  0.90628000  0.78344500  1
  S  S7  1  0.39177600  0.31026700  0.78346800  1
  S  S8  1  0.10822900  0.09372300  0.21655400  1
  S  S9  1  0.60828100  0.68972600  0.21653100  1
loop_
 _atom_site_moment_label
 _atom_site_moment_crystalaxis_x
 _atom_site_moment_crystalaxis_y
 _atom_site_moment_crystalaxis_z
  Co4  -0.03453870  1.63321205  -1.83691316
  Co5  0.03457659  -1.63500384  1.83892843
