# generated using pymatgen
data_Rb2CoS2
_symmetry_space_group_name_H-M   'P 1'
_cell_length_a   6.14254022
_cell_length_b   7.03388557
_cell_length_c   13.23482930
_cell_angle_alpha   89.99991079
_cell_angle_beta   89.99995809
_cell_angle_gamma   89.99983563
_symmetry_Int_Tables_number   1
_chemical_formula_structural   Rb2CoS2
_chemical_formula_sum   'Rb8 Co4 S8'
_cell_volume   571.82304269
_cell_formula_units_Z   4
loop_
 _symmetry_equiv_pos_site_id
 _symmetry_equiv_pos_as_xyz
  1  'x, y, z'
loop_
 _atom_site_type_symbol
 _atom_site_label
 _atom_site_symmetry_multiplicity
 _atom_site_fract_x
 _atom_site_fract_y
 _atom_site_fract_z
 _atom_site_occupancy
  Rb  Rb0  1  0.49996200  0.83451900  0.14691600  1
  Rb  Rb1  1  0.99997600  0.33453800  0.64701100  1
  Rb  Rb2  1  0.00003700  0.16548300  0.14691700  1
  Rb  Rb3  1  0.50002500  0.66545800  0.64701100  1
  Rb  Rb4  1  0.99997700  0.66546000  0.35298900  1
  Rb  Rb5  1  0.49996400  0.16548100  0.85308400  1
  Rb  Rb6  1  0.50002400  0.33454000  0.35299000  1
  Rb  Rb7  1  0.00003600  0.83451900  0.85308300  1
  Co  Co8  1  0.25000000  0.00000000  0.50000100  1
  Co  Co9  1  0.24999800  0.50000000  0.99999800  1
  Co  Co10  1  0.75000100  0.50000000  0.00000200  1
  Co  Co11  1  0.75000000  0.00000100  0.49999900  1
  S  S12  1  0.49991700  0.33038000  0.09381200  1
  S  S13  1  0.00003000  0.83025500  0.59395100  1
  S  S14  1  0.00008000  0.66961500  0.09381500  1
  S  S15  1  0.49997000  0.16973900  0.59395300  1
  S  S16  1  0.00002900  0.16974600  0.40604900  1
  S  S17  1  0.49991800  0.66962100  0.90618800  1
  S  S18  1  0.49997200  0.83026100  0.40604700  1
  S  S19  1  0.00008300  0.33038500  0.90618500  1
loop_
 _atom_site_moment_label
 _atom_site_moment_crystalaxis_x
 _atom_site_moment_crystalaxis_y
 _atom_site_moment_crystalaxis_z
  Co8  0.74620360  0.86424332  -1.62250489
  Co9  0.74206638  0.85945165  -1.61350915
  Co10  -0.74394693  -0.86162968  1.61759812
  Co11  -0.74657971  -0.86467893  1.62332268
  S12  0.00037611  0.00043561  -0.00081779
  S14  0.00037611  0.00043561  -0.00081779
  S17  0.00037611  0.00043561  -0.00081779
  S19  0.00037611  0.00043561  -0.00081779
