# generated using pymatgen
data_BeFe2Si
_symmetry_space_group_name_H-M   'P 1'
_cell_length_a   3.80948735
_cell_length_b   3.80935220
_cell_length_c   3.80946900
_cell_angle_alpha   59.99891668
_cell_angle_beta   59.99863680
_cell_angle_gamma   60.00096730
_symmetry_Int_Tables_number   1
_chemical_formula_structural   BeFe2Si
_chemical_formula_sum   'Be1 Fe2 Si1'
_cell_volume   39.08969248
_cell_formula_units_Z   1
loop_
 _symmetry_equiv_pos_site_id
 _symmetry_equiv_pos_as_xyz
  1  'x, y, z'
loop_
 _atom_site_type_symbol
 _atom_site_label
 _atom_site_symmetry_multiplicity
 _atom_site_fract_x
 _atom_site_fract_y
 _atom_site_fract_z
 _atom_site_occupancy
  Be  Be0  1  0.50000000  0.50000000  0.50000000  1
  Fe  Fe1  1  0.25000000  0.25000000  0.24999900  1
  Fe  Fe2  1  0.75000000  0.75000000  0.75000100  1
  Si  Si3  1  0.00000000  0.00000000  0.00000000  1
loop_
 _atom_site_moment_label
 _atom_site_moment_crystalaxis_x
 _atom_site_moment_crystalaxis_y
 _atom_site_moment_crystalaxis_z
  Be0  0.00000041  -0.00000012  -0.02400015
  Fe1  -0.00001063  0.00000300  0.62300381
  Fe2  -0.00001063  0.00000300  0.62300381
  Si3  0.00000055  -0.00000015  -0.03200020
