# generated using pymatgen
data_Rb2CoSe2
_symmetry_space_group_name_H-M   'P 1'
_cell_length_a   6.48539058
_cell_length_b   7.23190552
_cell_length_c   8.42849765
_cell_angle_alpha   115.40318826
_cell_angle_beta   67.36317896
_cell_angle_gamma   89.99782829
_symmetry_Int_Tables_number   1
_chemical_formula_structural   Rb2CoSe2
_chemical_formula_sum   'Rb4 Co2 Se4'
_cell_volume   323.04922423
_cell_formula_units_Z   2
loop_
 _symmetry_equiv_pos_site_id
 _symmetry_equiv_pos_as_xyz
  1  'x, y, z'
loop_
 _atom_site_type_symbol
 _atom_site_label
 _atom_site_symmetry_multiplicity
 _atom_site_fract_x
 _atom_site_fract_y
 _atom_site_fract_z
 _atom_site_occupancy
  Rb  Rb0  1  0.64521300  0.18241500  0.70954300  1
  Rb  Rb1  1  0.35477100  0.81758300  0.29045600  1
  Rb  Rb2  1  0.85478500  0.47286900  0.29044800  1
  Rb  Rb3  1  0.14523600  0.52713100  0.70955100  1
  Co  Co4  1  0.24999700  0.00000200  0.00000300  1
  Co  Co5  1  0.74999900  0.99999700  0.99999800  1
  Se  Se6  1  0.59622700  0.73097800  0.80752100  1
  Se  Se7  1  0.90374900  0.92347200  0.19249000  1
  Se  Se8  1  0.09628200  0.07652900  0.80751100  1
  Se  Se9  1  0.40374300  0.26902400  0.19247900  1
loop_
 _atom_site_moment_label
 _atom_site_moment_crystalaxis_x
 _atom_site_moment_crystalaxis_y
 _atom_site_moment_crystalaxis_z
  Co4  1.56156530  -0.00077203  -2.01967952
  Co5  -1.56233759  0.00077241  2.02067838
