# generated using pymatgen
data_Cs2CoSe2
_symmetry_space_group_name_H-M   'P 1'
_cell_length_a   6.57311763
_cell_length_b   7.57553616
_cell_length_c   8.80670058
_cell_angle_alpha   64.52064097
_cell_angle_beta   68.08594165
_cell_angle_gamma   89.99154767
_symmetry_Int_Tables_number   1
_chemical_formula_structural   Cs2CoSe2
_chemical_formula_sum   'Cs4 Co2 Se4'
_cell_volume   360.47423041
_cell_formula_units_Z   2
loop_
 _symmetry_equiv_pos_site_id
 _symmetry_equiv_pos_as_xyz
  1  'x, y, z'
loop_
 _atom_site_type_symbol
 _atom_site_label
 _atom_site_symmetry_multiplicity
 _atom_site_fract_x
 _atom_site_fract_y
 _atom_site_fract_z
 _atom_site_occupancy
  Cs  Cs0  1  0.64599000  0.81889000  0.70808000  1
  Cs  Cs1  1  0.35408300  0.18111200  0.29192200  1
  Cs  Cs2  1  0.85402100  0.52698300  0.29191000  1
  Cs  Cs3  1  0.14590700  0.47301500  0.70808900  1
  Co  Co4  1  0.75000200  0.00000300  0.99999500  1
  Co  Co5  1  0.24999700  0.99999700  0.00000400  1
  Se  Se6  1  0.59121500  0.25454900  0.81777600  1
  Se  Se7  1  0.90890900  0.07239300  0.18208700  1
  Se  Se8  1  0.09093800  0.92760700  0.81791200  1
  Se  Se9  1  0.40893400  0.74545100  0.18222400  1
loop_
 _atom_site_moment_label
 _atom_site_moment_crystalaxis_x
 _atom_site_moment_crystalaxis_y
 _atom_site_moment_crystalaxis_z
  Co4  1.51989230  1.74023822  -2.02366506
  Co5  -1.52064213  -1.74109674  2.02466341
