# generated using pymatgen
data_K2MnSe2
_symmetry_space_group_name_H-M   'P 1'
_cell_length_a   6.34960424
_cell_length_b   7.18249281
_cell_length_c   13.42989830
_cell_angle_alpha   90.00031368
_cell_angle_beta   90.00003956
_cell_angle_gamma   89.99985172
_symmetry_Int_Tables_number   1
_chemical_formula_structural   K2MnSe2
_chemical_formula_sum   'K8 Mn4 Se8'
_cell_volume   612.48376452
_cell_formula_units_Z   4
loop_
 _symmetry_equiv_pos_site_id
 _symmetry_equiv_pos_as_xyz
  1  'x, y, z'
loop_
 _atom_site_type_symbol
 _atom_site_label
 _atom_site_symmetry_multiplicity
 _atom_site_fract_x
 _atom_site_fract_y
 _atom_site_fract_z
 _atom_site_occupancy
  K  K0  1  0.49999900  0.83364700  0.35457400  1
  K  K1  1  0.00000000  0.33364700  0.85457400  1
  K  K2  1  0.00000100  0.66635900  0.14542900  1
  K  K3  1  0.49999900  0.16635300  0.64542500  1
  K  K4  1  0.49999900  0.33364600  0.14542400  1
  K  K5  1  0.00000100  0.83364200  0.64543000  1
  K  K6  1  0.00000100  0.16635200  0.35457400  1
  K  K7  1  0.50000000  0.66635800  0.85457000  1
  Mn  Mn8  1  0.25000100  0.50000000  0.50000000  1
  Mn  Mn9  1  0.24999800  0.00000100  0.99999900  1
  Mn  Mn10  1  0.75000100  0.99999900  0.00000000  1
  Mn  Mn11  1  0.75000000  0.50000000  0.50000000  1
  Se  Se12  1  0.99999800  0.19392200  0.10416800  1
  Se  Se13  1  0.50000600  0.69392200  0.60416800  1
  Se  Se14  1  0.50000600  0.30607800  0.39583200  1
  Se  Se15  1  0.99999700  0.80607800  0.89583100  1
  Se  Se16  1  0.99999400  0.69392200  0.39583100  1
  Se  Se17  1  0.50000300  0.19392200  0.89583100  1
  Se  Se18  1  0.50000200  0.80607700  0.10416800  1
  Se  Se19  1  0.99999400  0.30607700  0.60416800  1
loop_
 _atom_site_moment_label
 _atom_site_moment_crystalaxis_x
 _atom_site_moment_crystalaxis_y
 _atom_site_moment_crystalaxis_z
  Mn8  1.60304198  1.74392635  -3.25167996
  Mn9  1.60304198  1.74392635  -3.25167996
  Mn10  -1.60344045  -1.74435984  3.25248823
  Mn11  -1.60304198  -1.74392635  3.25167996
