# generated using pymatgen
data_K2MnS2
_symmetry_space_group_name_H-M   'P 1'
_cell_length_a   6.00870439
_cell_length_b   6.95827516
_cell_length_c   7.87336687
_cell_angle_alpha   63.77512465
_cell_angle_beta   112.42542338
_cell_angle_gamma   89.99879228
_symmetry_Int_Tables_number   1
_chemical_formula_structural   K2MnS2
_chemical_formula_sum   'K4 Mn2 S4'
_cell_volume   267.26957989
_cell_formula_units_Z   2
loop_
 _symmetry_equiv_pos_site_id
 _symmetry_equiv_pos_as_xyz
  1  'x, y, z'
loop_
 _atom_site_type_symbol
 _atom_site_label
 _atom_site_symmetry_multiplicity
 _atom_site_fract_x
 _atom_site_fract_y
 _atom_site_fract_z
 _atom_site_occupancy
  K  K0  1  0.64726200  0.19381600  0.29455600  1
  K  K1  1  0.85273500  0.48846600  0.70548200  1
  K  K2  1  0.35273500  0.80618300  0.70544500  1
  K  K3  1  0.14726800  0.51153400  0.29451900  1
  Mn  Mn4  1  0.24998700  0.00000200  0.00000200  1
  Mn  Mn5  1  0.75001400  0.99999800  0.99999700  1
  S  S6  1  0.60169600  0.70726900  0.20335100  1
  S  S7  1  0.89840500  0.91054200  0.79673300  1
  S  S8  1  0.39829500  0.29273200  0.79664900  1
  S  S9  1  0.10160300  0.08945800  0.20326600  1
loop_
 _atom_site_moment_label
 _atom_site_moment_crystalaxis_x
 _atom_site_moment_crystalaxis_y
 _atom_site_moment_crystalaxis_z
  Mn4  0.08088331  3.44069592  -3.89036618
  Mn5  -0.08086270  -3.43981886  3.88937450
