# generated using pymatgen
data_MnSe
_symmetry_space_group_name_H-M   'P 1'
_cell_length_a   4.13879100
_cell_length_b   7.06696500
_cell_length_c   6.75922800
_cell_angle_alpha   90.00030662
_cell_angle_beta   89.99804229
_cell_angle_gamma   90.00008207
_symmetry_Int_Tables_number   1
_chemical_formula_structural   MnSe
_chemical_formula_sum   'Mn4 Se4'
_cell_volume   197.69857205
_cell_formula_units_Z   4
loop_
 _symmetry_equiv_pos_site_id
 _symmetry_equiv_pos_as_xyz
  1  'x, y, z'
loop_
 _atom_site_type_symbol
 _atom_site_label
 _atom_site_symmetry_multiplicity
 _atom_site_fract_x
 _atom_site_fract_y
 _atom_site_fract_z
 _atom_site_occupancy
  Mn  Mn0  1  0.99999800  0.66768100  0.50165500  1
  Mn  Mn1  1  0.99999600  0.33231600  0.00164900  1
  Mn  Mn2  1  0.50000000  0.16769500  0.50166700  1
  Mn  Mn3  1  0.49999200  0.83230600  0.00166000  1
  Se  Se4  1  0.50000000  0.16680300  0.87434200  1
  Se  Se5  1  0.00000400  0.66681000  0.87434500  1
  Se  Se6  1  0.99999900  0.33319100  0.37434100  1
  Se  Se7  1  0.50001000  0.83319700  0.37434200  1
loop_
 _atom_site_moment_label
 _atom_site_moment_crystalaxis_x
 _atom_site_moment_crystalaxis_y
 _atom_site_moment_crystalaxis_z
  Mn0  0.00007035  -0.00001101  -4.13500000
  Mn1  0.00007035  -0.00001101  -4.13500000
  Mn2  -0.00007035  0.00001101  4.13500000
  Mn3  -0.00007035  0.00001101  4.13500000
  Se4  0.00000002  0.00000000  -0.00100000
  Se5  -0.00000002  0.00000000  0.00100000
  Se6  -0.00000002  0.00000000  0.00100000
  Se7  0.00000002  0.00000000  -0.00100000
