# generated using pymatgen
data_CsV5S8
_symmetry_space_group_name_H-M   'P 1'
_cell_length_a   3.34308160
_cell_length_b   8.78878838
_cell_length_c   17.81189228
_cell_angle_alpha   104.34247834
_cell_angle_beta   89.99985657
_cell_angle_gamma   90.00002781
_symmetry_Int_Tables_number   1
_chemical_formula_structural   CsV5S8
_chemical_formula_sum   'Cs2 V10 S16'
_cell_volume   507.03118709
_cell_formula_units_Z   2
loop_
 _symmetry_equiv_pos_site_id
 _symmetry_equiv_pos_as_xyz
  1  'x, y, z'
loop_
 _atom_site_type_symbol
 _atom_site_label
 _atom_site_symmetry_multiplicity
 _atom_site_fract_x
 _atom_site_fract_y
 _atom_site_fract_z
 _atom_site_occupancy
  Cs  Cs0  1  0.50000100  0.50000600  0.00001400  1
  Cs  Cs1  1  0.99999900  0.50001200  0.49999300  1
  V  V2  1  0.49999400  0.00002600  0.50005600  1
  V  V3  1  0.00000400  0.99722700  0.65092500  1
  V  V4  1  0.99999700  0.00281500  0.34910200  1
  V  V5  1  0.99999800  0.34708100  0.70778900  1
  V  V6  1  0.99999900  0.65292800  0.29223200  1
  V  V7  1  0.00000300  0.99995600  0.99995500  1
  V  V8  1  0.50000100  0.99728500  0.15070200  1
  V  V9  1  0.50000100  0.00268700  0.84928600  1
  V  V10  1  0.49999800  0.34716700  0.20782500  1
  V  V11  1  0.50000100  0.65279300  0.79215000  1
  S  S12  1  0.50000400  0.17024200  0.07364600  1
  S  S13  1  0.00000000  0.17019900  0.57374600  1
  S  S14  1  0.99999600  0.82989300  0.42628600  1
  S  S15  1  0.50000100  0.82966100  0.92631200  1
  S  S16  1  0.99999800  0.82992000  0.08813200  1
  S  S17  1  0.50000200  0.82978900  0.58825300  1
  S  S18  1  0.49999800  0.17020200  0.41177500  1
  S  S19  1  0.00000300  0.17013100  0.91182700  1
  S  S20  1  0.00000200  0.49581500  0.16536400  1
  S  S21  1  0.50000200  0.49573600  0.66529500  1
  S  S22  1  0.49999600  0.50421800  0.33467500  1
  S  S23  1  0.99999800  0.50422600  0.83467600  1
  S  S24  1  0.99999800  0.15787800  0.24010500  1
  S  S25  1  0.50000200  0.15792700  0.74021600  1
  S  S26  1  0.50000000  0.84209300  0.25980300  1
  S  S27  1  0.00000300  0.84209100  0.75986000  1
loop_
 _atom_site_moment_label
 _atom_site_moment_crystalaxis_x
 _atom_site_moment_crystalaxis_y
 _atom_site_moment_crystalaxis_z
  Cs0  0.00018696  -0.00000449  -0.00098347
  Cs1  -0.00018696  0.00000449  0.00098347
  V2  -0.15872820  0.00381619  0.83496773
  V3  0.20939409  -0.00503432  -1.10148864
  V4  0.20864625  -0.00501634  -1.09755476
  V5  0.24753373  -0.00595128  -1.30211693
  V6  0.24734677  -0.00594679  -1.30113346
  V7  0.16377609  -0.00393756  -0.86152147
  V8  -0.20920713  0.00502982  1.10050517
  V9  -0.20902017  0.00502533  1.09952170
  V10  -0.24715981  0.00594229  1.30014999
  V11  -0.24772069  0.00595578  1.30310040
  S12  0.00448702  -0.00010788  -0.02360333
  S13  -0.00467398  0.00011237  0.02458680
  S14  -0.00467398  0.00011237  0.02458680
  S15  0.00448702  -0.00010788  -0.02360333
  S16  0.00822620  -0.00019778  -0.04327277
  S17  -0.00841316  0.00020227  0.04425624
  S18  -0.00841316  0.00020227  0.04425624
  S19  0.00822620  -0.00019778  -0.04327277
  S20  0.00355222  -0.00008540  -0.01868597
  S21  -0.00336526  0.00008091  0.01770250
  S22  -0.00336526  0.00008091  0.01770250
  S23  0.00355222  -0.00008540  -0.01868597
  S24  0.00467398  -0.00011237  -0.02458680
  S25  -0.00467398  0.00011237  0.02458680
  S26  -0.00467398  0.00011237  0.02458680
  S27  0.00467398  -0.00011237  -0.02458680
