# generated using pymatgen
data_KV5Se8
_symmetry_space_group_name_H-M   'P 1'
_cell_length_a   3.49113881
_cell_length_b   9.09056827
_cell_length_c   18.52886523
_cell_angle_alpha   75.88142629
_cell_angle_beta   90.00034338
_cell_angle_gamma   90.00051247
_symmetry_Int_Tables_number   1
_chemical_formula_structural   KV5Se8
_chemical_formula_sum   'K2 V10 Se16'
_cell_volume   570.27720586
_cell_formula_units_Z   2
loop_
 _symmetry_equiv_pos_site_id
 _symmetry_equiv_pos_as_xyz
  1  'x, y, z'
loop_
 _atom_site_type_symbol
 _atom_site_label
 _atom_site_symmetry_multiplicity
 _atom_site_fract_x
 _atom_site_fract_y
 _atom_site_fract_z
 _atom_site_occupancy
  K  K0  1  0.49999700  0.00012200  0.99997900  1
  K  K1  1  0.99999600  0.50006600  0.49997100  1
  V  V2  1  0.49999800  0.99992000  0.50004200  1
  V  V3  1  0.50000600  0.65174400  0.85290300  1
  V  V4  1  0.49999400  0.34828300  0.14715200  1
  V  V5  1  0.49999500  0.36361900  0.79190800  1
  V  V6  1  0.49999800  0.63652400  0.20802800  1
  V  V7  1  0.00000400  0.49985100  0.00010900  1
  V  V8  1  0.99999800  0.15147100  0.35292100  1
  V  V9  1  0.00000600  0.84843100  0.64698200  1
  V  V10  1  0.99999700  0.86353800  0.29201300  1
  V  V11  1  0.00000500  0.13652400  0.70802900  1
  Se  Se12  1  0.00000000  0.89240400  0.42793900  1
  Se  Se13  1  0.50000300  0.39259600  0.92789000  1
  Se  Se14  1  0.50000500  0.60734000  0.07212000  1
  Se  Se15  1  0.00000100  0.10755600  0.57205100  1
  Se  Se16  1  0.49999800  0.26855100  0.41469600  1
  Se  Se17  1  0.00000600  0.76876200  0.91467500  1
  Se  Se18  1  0.99999300  0.23135600  0.08537500  1
  Se  Se19  1  0.50000500  0.73120900  0.58538300  1
  Se  Se20  1  0.49999500  0.66388400  0.33814800  1
  Se  Se21  1  0.99999000  0.16397600  0.83819500  1
  Se  Se22  1  0.00000300  0.83605200  0.16180100  1
  Se  Se23  1  0.50000500  0.33618500  0.66174400  1
  Se  Se24  1  0.49999700  0.08658300  0.25895400  1
  Se  Se25  1  0.00000400  0.58677500  0.75885900  1
  Se  Se26  1  0.99999800  0.41329800  0.24109500  1
  Se  Se27  1  0.50000500  0.91338000  0.74103800  1
loop_
 _atom_site_moment_label
 _atom_site_moment_crystalaxis_x
 _atom_site_moment_crystalaxis_y
 _atom_site_moment_crystalaxis_z
  K0  -0.00038818  -0.00095578  0.00196235
  K1  0.00038818  0.00095578  -0.00196235
  V2  0.24921202  0.61361157  -1.25982774
  V3  0.23504343  0.57872555  -1.18820202
  V4  0.23484934  0.57824766  -1.18722085
  V5  0.29443508  0.72496009  -1.48844134
  V6  0.29443508  0.72496009  -1.48844134
  V7  -0.25309383  -0.62316938  1.27945122
  V8  -0.23659615  -0.58254868  1.19605141
  V9  -0.23426707  -0.57681399  1.18427732
  V10  -0.29385281  -0.72352641  1.48549782
  V11  -0.29540553  -0.72734954  1.49334721
  Se12  0.00368772  0.00907992  -0.01864231
  Se13  -0.00349363  -0.00860203  0.01766114
  Se14  -0.00349363  -0.00860203  0.01766114
  Se15  0.00368772  0.00907992  -0.01864231
  Se16  0.01106315  0.02723977  -0.05592693
  Se17  -0.01106315  -0.02723977  0.05592693
  Se18  -0.01086906  -0.02676188  0.05494576
  Se19  0.01125724  0.02771766  -0.05690811
  Se20  0.00446408  0.01099148  -0.02256701
  Se21  -0.00465817  -0.01146938  0.02354818
  Se22  -0.00446408  -0.01099148  0.02256701
  Se23  0.00446408  0.01099148  -0.02256701
  Se24  0.00698725  0.01720406  -0.03532227
  Se25  -0.00718134  -0.01768195  0.03630345
  Se26  -0.00698725  -0.01720406  0.03532227
  Se27  0.00698725  0.01720406  -0.03532227
