# generated using pymatgen
data_NaVS2
_symmetry_space_group_name_H-M   'P 1'
_cell_length_a   3.61133411
_cell_length_b   11.99141539
_cell_length_c   6.70383625
_cell_angle_alpha   90.02322537
_cell_angle_beta   89.97586443
_cell_angle_gamma   90.01385489
_symmetry_Int_Tables_number   1
_chemical_formula_structural   NaVS2
_chemical_formula_sum   'Na4 V4 S8'
_cell_volume   290.30962062
_cell_formula_units_Z   4
loop_
 _symmetry_equiv_pos_site_id
 _symmetry_equiv_pos_as_xyz
  1  'x, y, z'
loop_
 _atom_site_type_symbol
 _atom_site_label
 _atom_site_symmetry_multiplicity
 _atom_site_fract_x
 _atom_site_fract_y
 _atom_site_fract_z
 _atom_site_occupancy
  Na  Na0  1  0.00004400  0.99568900  0.49668700  1
  Na  Na1  1  0.50002700  0.25428600  0.50347100  1
  Na  Na2  1  0.00006000  0.49582300  0.49662700  1
  Na  Na3  1  0.49987400  0.75411300  0.50321100  1
  V  V4  1  0.00005500  0.51150800  0.00463200  1
  V  V5  1  0.49986800  0.73855400  0.99523800  1
  V  V6  1  0.00001200  0.01166600  0.00479000  1
  V  V7  1  0.50005400  0.23832200  0.99538100  1
  S  S8  1  0.99985300  0.17075100  0.21179100  1
  S  S9  1  0.49985000  0.41818900  0.19211900  1
  S  S10  1  0.99969800  0.67071000  0.21153400  1
  S  S11  1  0.49977000  0.91830100  0.19231700  1
  S  S12  1  0.50022500  0.07929900  0.78833300  1
  S  S13  1  0.00026600  0.33166100  0.80782100  1
  S  S14  1  0.50024200  0.57931500  0.78830900  1
  S  S15  1  0.00010100  0.83181200  0.80773800  1
loop_
 _atom_site_moment_label
 _atom_site_moment_crystalaxis_x
 _atom_site_moment_crystalaxis_y
 _atom_site_moment_crystalaxis_z
  Na0  -0.00000021  0.00000018  0.00100000
  Na1  -0.00000021  0.00000018  0.00100000
  Na2  0.00000021  -0.00000018  -0.00100000
  Na3  0.00000021  -0.00000018  -0.00100000
  V4  0.00037274  -0.00031814  -1.78500022
  V5  0.00037065  -0.00031636  -1.77500022
  V6  -0.00037232  0.00031778  1.78300022
  V7  -0.00037044  0.00031618  1.77400022
  S8  0.00001462  -0.00001248  -0.07000001
  S9  -0.00000292  0.00000250  0.01400000
  S10  -0.00001462  0.00001248  0.07000001
  S11  0.00000292  -0.00000250  -0.01400000
  S12  0.00001462  -0.00001248  -0.07000001
  S13  0.00000313  -0.00000267  -0.01500000
  S14  -0.00001462  0.00001248  0.07000001
  S15  -0.00000292  0.00000250  0.01400000
