# generated using pymatgen
data_Rb(FeAs)2
_symmetry_space_group_name_H-M   'P 1'
_cell_length_a   3.81920791
_cell_length_b   7.87436947
_cell_length_c   7.49788392
_cell_angle_alpha   103.03396346
_cell_angle_beta   90.00003746
_cell_angle_gamma   75.96976001
_symmetry_Int_Tables_number   1
_chemical_formula_structural   Rb(FeAs)2
_chemical_formula_sum   'Rb2 Fe4 As4'
_cell_volume   212.77043410
_cell_formula_units_Z   2
loop_
 _symmetry_equiv_pos_site_id
 _symmetry_equiv_pos_as_xyz
  1  'x, y, z'
loop_
 _atom_site_type_symbol
 _atom_site_label
 _atom_site_symmetry_multiplicity
 _atom_site_fract_x
 _atom_site_fract_y
 _atom_site_fract_z
 _atom_site_occupancy
  Rb  Rb0  1  0.00000600  0.99999900  0.50004300  1
  Rb  Rb1  1  0.00000900  0.99999600  0.00001400  1
  Fe  Fe2  1  0.75127300  0.49739900  0.37853700  1
  Fe  Fe3  1  0.24871700  0.50262300  0.62136500  1
  Fe  Fe4  1  0.75131200  0.49735600  0.87849700  1
  Fe  Fe5  1  0.24870300  0.50260300  0.12156600  1
  As  As6  1  0.65434000  0.69165100  0.67605000  1
  As  As7  1  0.65423600  0.69172300  0.17624600  1
  As  As8  1  0.34564600  0.30842200  0.32392900  1
  As  As9  1  0.34575700  0.30822800  0.82375100  1
loop_
 _atom_site_moment_label
 _atom_site_moment_crystalaxis_x
 _atom_site_moment_crystalaxis_y
 _atom_site_moment_crystalaxis_z
  Rb0  0.00048428  -0.00099321  -0.00047380
  Rb1  -0.00048428  0.00099321  0.00047380
  Fe2  0.82278848  -1.68746207  -0.80498551
  Fe3  0.82375704  -1.68944849  -0.80593311
  Fe4  -0.82520987  1.69242812  0.80735451
  Fe5  -0.82569415  1.69342133  0.80782831
  As6  -0.02421390  0.04966045  0.02368998
  As7  0.02421390  -0.04966045  -0.02368998
  As8  -0.02372963  0.04866724  0.02321618
  As9  0.02421390  -0.04966045  -0.02368998
