# generated using pymatgen
data_MnSe
_symmetry_space_group_name_H-M   'P 1'
_cell_length_a   3.56640945
_cell_length_b   3.56477000
_cell_length_c   13.40001416
_cell_angle_alpha   89.99362334
_cell_angle_beta   89.99600791
_cell_angle_gamma   90.01595710
_symmetry_Int_Tables_number   1
_chemical_formula_structural   MnSe
_chemical_formula_sum   'Mn4 Se4'
_cell_volume   170.36012633
_cell_formula_units_Z   4
loop_
 _symmetry_equiv_pos_site_id
 _symmetry_equiv_pos_as_xyz
  1  'x, y, z'
loop_
 _atom_site_type_symbol
 _atom_site_label
 _atom_site_symmetry_multiplicity
 _atom_site_fract_x
 _atom_site_fract_y
 _atom_site_fract_z
 _atom_site_occupancy
  Mn  Mn0  1  0.99998000  0.00001000  0.43424600  1
  Mn  Mn1  1  0.50002000  0.49998100  0.81563200  1
  Mn  Mn2  1  0.00000500  0.99994800  0.93436900  1
  Mn  Mn3  1  0.49997800  0.50003600  0.31574200  1
  Se  Se4  1  0.99995300  0.99993900  0.75311300  1
  Se  Se5  1  0.50004300  0.50002300  0.99686000  1
  Se  Se6  1  0.99996200  0.99997900  0.25311900  1
  Se  Se7  1  0.50005900  0.50008300  0.49691800  1
loop_
 _atom_site_moment_label
 _atom_site_moment_crystalaxis_x
 _atom_site_moment_crystalaxis_y
 _atom_site_moment_crystalaxis_z
  Mn0  -1.89967814  -1.89961076  -2.68612474
  Mn1  -1.89917809  -1.89911073  -2.68541768
  Mn2  1.89867805  1.89861070  2.68471062
  Mn3  1.89867805  1.89861070  2.68471062
  Se4  -0.01050098  -0.01050061  -0.01484828
  Se5  0.01100103  0.01100064  0.01555534
  Se6  0.01050098  0.01050061  0.01484828
  Se7  -0.01050098  -0.01050061  -0.01484828
