# generated using pymatgen
data_KFeSe2
_symmetry_space_group_name_H-M   'P 1'
_cell_length_a   5.53241428
_cell_length_b   7.02445854
_cell_length_c   7.02446174
_cell_angle_alpha   116.54828946
_cell_angle_beta   101.39112526
_cell_angle_gamma   101.39126380
_symmetry_Int_Tables_number   1
_chemical_formula_structural   KFeSe2
_chemical_formula_sum   'K2 Fe2 Se4'
_cell_volume   226.32279912
_cell_formula_units_Z   2
loop_
 _symmetry_equiv_pos_site_id
 _symmetry_equiv_pos_as_xyz
  1  'x, y, z'
loop_
 _atom_site_type_symbol
 _atom_site_label
 _atom_site_symmetry_multiplicity
 _atom_site_fract_x
 _atom_site_fract_y
 _atom_site_fract_z
 _atom_site_occupancy
  K  K0  1  0.74999900  0.63802200  0.36197700  1
  K  K1  1  0.25000100  0.36198300  0.63801800  1
  Fe  Fe2  1  0.25000000  0.99838300  0.00161900  1
  Fe  Fe3  1  0.74999900  0.00161400  0.99838500  1
  Se  Se4  1  0.10109500  0.30922000  0.08396900  1
  Se  Se5  1  0.39890600  0.91603100  0.69077900  1
  Se  Se6  1  0.89876100  0.69077900  0.91603300  1
  Se  Se7  1  0.60124000  0.08396800  0.30922100  1
loop_
 _atom_site_moment_label
 _atom_site_moment_crystalaxis_x
 _atom_site_moment_crystalaxis_y
 _atom_site_moment_crystalaxis_z
  Fe2  0.01467620  -0.01022447  -2.92460683
  Fe3  -0.01466616  0.01021747  2.92260573
  Se4  -0.00001004  0.00000700  0.00200110
  Se5  -0.00001004  0.00000700  0.00200110
  Se6  0.00000502  -0.00000350  -0.00100055
  Se7  0.00000502  -0.00000350  -0.00100055
