# generated using pymatgen
data_V5Te4
_symmetry_space_group_name_H-M   'P 1'
_cell_length_a   3.98210275
_cell_length_b   13.97306014
_cell_length_c   7.01899829
_cell_angle_alpha   93.17723844
_cell_angle_beta   106.48571266
_cell_angle_gamma   89.98289479
_symmetry_Int_Tables_number   1
_chemical_formula_structural   V5Te4
_chemical_formula_sum   'V10 Te8'
_cell_volume   373.87262337
_cell_formula_units_Z   2
loop_
 _symmetry_equiv_pos_site_id
 _symmetry_equiv_pos_as_xyz
  1  'x, y, z'
loop_
 _atom_site_type_symbol
 _atom_site_label
 _atom_site_symmetry_multiplicity
 _atom_site_fract_x
 _atom_site_fract_y
 _atom_site_fract_z
 _atom_site_occupancy
  V  V0  1  0.53503700  0.86424900  0.06971000  1
  V  V1  1  0.46464700  0.13552800  0.92988900  1
  V  V2  1  0.96478100  0.63579300  0.93001000  1
  V  V3  1  0.88632200  0.46513100  0.77220800  1
  V  V4  1  0.38600400  0.96506600  0.77173200  1
  V  V5  1  0.99999800  0.99996000  0.99999400  1
  V  V6  1  0.50019000  0.50006300  0.00020500  1
  V  V7  1  0.61378800  0.03478900  0.22787800  1
  V  V8  1  0.11403700  0.53499800  0.22830900  1
  V  V9  1  0.03544500  0.36441500  0.07043200  1
  Te  Te10  1  0.82565000  0.09618000  0.65133000  1
  Te  Te11  1  0.32582500  0.59631900  0.65160300  1
  Te  Te12  1  0.10590400  0.17684300  0.21253000  1
  Te  Te13  1  0.60603900  0.67707400  0.21265700  1
  Te  Te14  1  0.39416200  0.32305200  0.78765700  1
  Te  Te15  1  0.89379000  0.82295700  0.78690300  1
  Te  Te16  1  0.67427900  0.40389500  0.34870100  1
  Te  Te17  1  0.17409800  0.90369000  0.34825200  1
loop_
 _atom_site_moment_label
 _atom_site_moment_crystalaxis_x
 _atom_site_moment_crystalaxis_y
 _atom_site_moment_crystalaxis_z
  V0  -0.23105891  0.82125893  0.02441128
  V1  0.23160003  -0.82318226  -0.02446845
  V2  0.23105891  -0.82125893  -0.02441128
  V3  0.00432897  -0.01538658  -0.00045735
  V4  0.00378785  -0.01346326  -0.00040018
  V5  0.00054112  -0.00192332  -0.00005717
  V6  -0.00081168  0.00288498  0.00008575
  V7  -0.00432897  0.01538658  0.00045735
  V8  -0.00324673  0.01153994  0.00034302
  V9  -0.23132947  0.82222059  0.02443987
  Te10  -0.00108224  0.00384665  0.00011434
  Te11  -0.00108224  0.00384665  0.00011434
  Te12  0.00162336  -0.00576997  -0.00017151
  Te13  0.00162336  -0.00576997  -0.00017151
  Te14  -0.00162336  0.00576997  0.00017151
  Te15  -0.00135280  0.00480831  0.00014292
  Te16  0.00108224  -0.00384665  -0.00011434
  Te17  0.00135280  -0.00480831  -0.00014292
