# generated using pymatgen
data_Mg(CrSe2)2
_symmetry_space_group_name_H-M   'P 1'
_cell_length_a   7.61053642
_cell_length_b   7.61053645
_cell_length_c   7.61053700
_cell_angle_alpha   60.00000196
_cell_angle_beta   60.00000184
_cell_angle_gamma   59.99999884
_symmetry_Int_Tables_number   1
_chemical_formula_structural   Mg(CrSe2)2
_chemical_formula_sum   'Mg2 Cr4 Se8'
_cell_volume   311.69572914
_cell_formula_units_Z   2
loop_
 _symmetry_equiv_pos_site_id
 _symmetry_equiv_pos_as_xyz
  1  'x, y, z'
loop_
 _atom_site_type_symbol
 _atom_site_label
 _atom_site_symmetry_multiplicity
 _atom_site_fract_x
 _atom_site_fract_y
 _atom_site_fract_z
 _atom_site_occupancy
  Mg  Mg0  1  0.25000000  0.25000000  0.25000000  1
  Mg  Mg1  1  0.50000000  0.50000000  0.50000000  1
  Cr  Cr2  1  0.87500000  0.37500000  0.87500000  1
  Cr  Cr3  1  0.37500000  0.87500000  0.87500000  1
  Cr  Cr4  1  0.87500000  0.87500000  0.37500000  1
  Cr  Cr5  1  0.87500000  0.87500000  0.87500000  1
  Se  Se6  1  0.11183600  0.66449200  0.11183600  1
  Se  Se7  1  0.08550800  0.63816400  0.63816400  1
  Se  Se8  1  0.63816400  0.63816400  0.63816400  1
  Se  Se9  1  0.63816400  0.63816400  0.08550800  1
  Se  Se10  1  0.11183600  0.11183600  0.11183600  1
  Se  Se11  1  0.11183600  0.11183600  0.66449200  1
  Se  Se12  1  0.63816400  0.08550800  0.63816400  1
  Se  Se13  1  0.66449200  0.11183600  0.11183600  1
loop_
 _atom_site_moment_label
 _atom_site_moment_crystalaxis_x
 _atom_site_moment_crystalaxis_y
 _atom_site_moment_crystalaxis_z
  Mg0  0.00000000  0.00000000  0.00800000
  Mg1  0.00000000  0.00000000  0.00800000
  Cr2  0.00000000  0.00000000  2.99800000
  Cr3  0.00000000  0.00000000  2.99900000
  Cr4  0.00000000  0.00000000  2.99800000
  Cr5  0.00000000  0.00000000  3.00000000
  Se6  0.00000000  0.00000000  -0.09100000
  Se7  0.00000000  0.00000000  -0.09100000
  Se8  0.00000000  0.00000000  -0.09100000
  Se9  0.00000000  0.00000000  -0.09100000
  Se10  0.00000000  0.00000000  -0.09100000
  Se11  0.00000000  0.00000000  -0.09100000
  Se12  0.00000000  0.00000000  -0.09100000
  Se13  0.00000000  0.00000000  -0.09100000
