# generated using pymatgen
data_Ca(NiS2)4
_symmetry_space_group_name_H-M   'P 1'
_cell_length_a   6.97990695
_cell_length_b   9.83403336
_cell_length_c   6.99575973
_cell_angle_alpha   90.06686433
_cell_angle_beta   90.05903145
_cell_angle_gamma   90.36419852
_symmetry_Int_Tables_number   1
_chemical_formula_structural   Ca(NiS2)4
_chemical_formula_sum   'Ca2 Ni8 S16'
_cell_volume   480.18312281
_cell_formula_units_Z   2
loop_
 _symmetry_equiv_pos_site_id
 _symmetry_equiv_pos_as_xyz
  1  'x, y, z'
loop_
 _atom_site_type_symbol
 _atom_site_label
 _atom_site_symmetry_multiplicity
 _atom_site_fract_x
 _atom_site_fract_y
 _atom_site_fract_z
 _atom_site_occupancy
  Ca  Ca0  1  0.00000500  0.00004600  0.00004600  1
  Ca  Ca1  1  0.50001500  0.50002000  0.49997000  1
  Ni  Ni2  1  0.75015300  0.25002800  0.75019300  1
  Ni  Ni3  1  0.24992900  0.74995200  0.25011400  1
  Ni  Ni4  1  0.74986400  0.25002200  0.24998100  1
  Ni  Ni5  1  0.25003300  0.74995600  0.74983200  1
  Ni  Ni6  1  0.50006000  0.49991600  0.00014600  1
  Ni  Ni7  1  0.00001400  0.99998600  0.49986800  1
  Ni  Ni8  1  0.50002700  0.00000800  0.50005000  1
  Ni  Ni9  1  0.99999400  0.50001700  0.99990600  1
  S  S10  1  0.46777500  0.73508600  0.00037500  1
  S  S11  1  0.96794800  0.23508200  0.50033600  1
  S  S12  1  0.53218500  0.26490500  0.99958500  1
  S  S13  1  0.03200700  0.76488500  0.49962700  1
  S  S14  1  0.24823700  0.51538600  0.21407600  1
  S  S15  1  0.74807700  0.01541400  0.71400200  1
  S  S16  1  0.24815200  0.51547800  0.78519800  1
  S  S17  1  0.74789900  0.01543100  0.28533200  1
  S  S18  1  0.03346200  0.73064200  0.99948400  1
  S  S19  1  0.53349400  0.23049400  0.49955000  1
  S  S20  1  0.75183800  0.48453200  0.21474500  1
  S  S21  1  0.25202500  0.98453200  0.71465100  1
  S  S22  1  0.96657900  0.26942300  0.00050100  1
  S  S23  1  0.46653400  0.76952600  0.50049500  1
  S  S24  1  0.75174000  0.48462300  0.78590100  1
  S  S25  1  0.25195000  0.98460400  0.28603800  1
loop_
 _atom_site_moment_label
 _atom_site_moment_crystalaxis_x
 _atom_site_moment_crystalaxis_y
 _atom_site_moment_crystalaxis_z
  Ca0  -0.00747835  -0.01063460  -0.00756936
  Ca1  0.00697979  0.00992562  0.00706474
  Ni2  -0.00049856  -0.00070897  -0.00050462
  Ni4  0.00249278  0.00354487  0.00252312
  Ni5  0.00299134  0.00425384  0.00302775
  Ni7  -0.00149567  -0.00212692  -0.00151387
  Ni8  -0.37292017  -0.53031184  -0.37745900
  Ni9  0.37092594  0.52747595  0.37544050
  S10  0.00398845  0.00567178  0.00403699
  S11  -0.00348989  -0.00496281  -0.00353237
  S12  0.00348989  0.00496281  0.00353237
  S13  -0.00348989  -0.00496281  -0.00353237
  S14  0.02542638  0.03615763  0.02573584
  S15  -0.02592493  -0.03686660  -0.02624046
  S16  0.02841771  0.04041146  0.02876359
  S17  -0.02841771  -0.04041146  -0.02876359
  S18  0.02492782  0.03544865  0.02523122
  S19  -0.02492782  -0.03544865  -0.02523122
  S20  0.02791916  0.03970249  0.02825896
  S21  -0.02841771  -0.04041146  -0.02876359
  S22  0.02492782  0.03544865  0.02523122
  S23  -0.02492782  -0.03544865  -0.02523122
  S24  0.02542638  0.03615763  0.02573584
  S25  -0.02642349  -0.03757557  -0.02674509
