# generated using pymatgen
data_Mg(CoS2)2
_symmetry_space_group_name_H-M   'P 1'
_cell_length_a   6.80099413
_cell_length_b   6.90429009
_cell_length_c   6.90449803
_cell_angle_alpha   89.98312048
_cell_angle_beta   60.49458608
_cell_angle_gamma   119.50633767
_symmetry_Int_Tables_number   1
_chemical_formula_structural   Mg(CoS2)2
_chemical_formula_sum   'Mg2 Co4 S8'
_cell_volume   232.59948244
_cell_formula_units_Z   2
loop_
 _symmetry_equiv_pos_site_id
 _symmetry_equiv_pos_as_xyz
  1  'x, y, z'
loop_
 _atom_site_type_symbol
 _atom_site_label
 _atom_site_symmetry_multiplicity
 _atom_site_fract_x
 _atom_site_fract_y
 _atom_site_fract_z
 _atom_site_occupancy
  Mg  Mg0  1  0.49999700  0.99998800  0.49998900  1
  Mg  Mg1  1  0.00000200  0.99998800  0.49998900  1
  Co  Co2  1  0.25001700  0.62398300  0.12395000  1
  Co  Co3  1  0.74998300  0.37601300  0.87604800  1
  Co  Co4  1  0.00001400  0.00001600  0.99998900  1
  Co  Co5  1  0.49998700  0.49998900  0.50001600  1
  S  S6  1  0.97338600  0.74378300  0.24375900  1
  S  S7  1  0.52663800  0.74378300  0.24375900  1
  S  S8  1  0.02659300  0.25621100  0.75623400  1
  S  S9  1  0.47338600  0.25621200  0.75623300  1
  S  S10  1  0.49045400  0.72479000  0.74388100  1
  S  S11  1  0.99045300  0.75614300  0.77523500  1
  S  S12  1  0.00954500  0.24387200  0.22478300  1
  S  S13  1  0.50954700  0.27522800  0.25613500  1
loop_
 _atom_site_moment_label
 _atom_site_moment_crystalaxis_x
 _atom_site_moment_crystalaxis_y
 _atom_site_moment_crystalaxis_z
  Co2  -0.01488685  -0.00349598  -1.56862624
  Co3  0.01488685  0.00349598  1.56862624
  Co5  0.00000945  0.00000222  0.00099532
  S6  -0.00017003  -0.00003993  -0.01791578
  S7  -0.00017003  -0.00003993  -0.01791578
  S8  0.00016058  0.00003771  0.01692046
  S9  0.00016058  0.00003771  0.01692046
  S10  -0.00074623  -0.00017524  -0.07863038
  S11  0.00073679  0.00017302  0.07763506
  S12  -0.00074623  -0.00017524  -0.07863038
  S13  0.00073679  0.00017302  0.07763506
