# generated using pymatgen
data_Mg(CrS2)4
_symmetry_space_group_name_H-M   'P 1'
_cell_length_a   6.75222225
_cell_length_b   6.75716492
_cell_length_c   13.02389948
_cell_angle_alpha   105.00275481
_cell_angle_beta   74.97972070
_cell_angle_gamma   119.99129467
_symmetry_Int_Tables_number   1
_chemical_formula_structural   Mg(CrS2)4
_chemical_formula_sum   'Mg2 Cr8 S16'
_cell_volume   491.10109765
_cell_formula_units_Z   2
loop_
 _symmetry_equiv_pos_site_id
 _symmetry_equiv_pos_as_xyz
  1  'x, y, z'
loop_
 _atom_site_type_symbol
 _atom_site_label
 _atom_site_symmetry_multiplicity
 _atom_site_fract_x
 _atom_site_fract_y
 _atom_site_fract_z
 _atom_site_occupancy
  Mg  Mg0  1  0.24888000  0.75102200  0.25320000  1
  Mg  Mg1  1  0.74854400  0.25151100  0.75435000  1
  Cr  Cr2  1  0.99982700  0.00043200  0.00077200  1
  Cr  Cr3  1  0.49977500  0.50027800  0.50079200  1
  Cr  Cr4  1  0.99055900  0.48093200  0.49976200  1
  Cr  Cr5  1  0.51901700  0.00947700  0.49981300  1
  Cr  Cr6  1  0.99065100  0.00942000  0.49977200  1
  Cr  Cr7  1  0.49025300  0.98066400  0.00014100  1
  Cr  Cr8  1  0.01879000  0.50965300  0.00023900  1
  Cr  Cr9  1  0.49065800  0.50960300  0.00022100  1
  S  S10  1  0.63535100  0.36511500  0.09462200  1
  S  S11  1  0.13600200  0.86476200  0.59292200  1
  S  S12  1  0.87185200  0.12719900  0.38316500  1
  S  S13  1  0.37188000  0.62713400  0.88311000  1
  S  S14  1  0.12993400  0.37262800  0.11289900  1
  S  S15  1  0.63040800  0.87432700  0.61359400  1
  S  S16  1  0.36832900  0.63112800  0.39184000  1
  S  S17  1  0.86753200  0.13175800  0.89394700  1
  S  S18  1  0.36834200  0.12856800  0.39189400  1
  S  S19  1  0.86781700  0.62953900  0.89391400  1
  S  S20  1  0.87085700  0.63109100  0.39178400  1
  S  S21  1  0.37009400  0.13163100  0.89390500  1
  S  S22  1  0.62800300  0.87079300  0.11301300  1
  S  S23  1  0.12618800  0.37029700  0.61366300  1
  S  S24  1  0.12993900  0.87077800  0.11300800  1
  S  S25  1  0.63051600  0.37025800  0.61365600  1
loop_
 _atom_site_moment_label
 _atom_site_moment_crystalaxis_x
 _atom_site_moment_crystalaxis_y
 _atom_site_moment_crystalaxis_z
  Mg0  0.00096841  0.00093773  0.00174984
  Mg1  -0.00048420  -0.00046886  -0.00087492
  Cr2  -1.26037957  -1.22045318  -2.27741151
  Cr3  1.27393725  1.23358138  2.30190921
  Cr4  -1.17709671  -1.13980856  -2.12692561
  Cr5  -1.17515990  -1.13793311  -2.12342594
  Cr6  -1.17612831  -1.13887084  -2.12517578
  Cr7  1.16886527  1.13183787  2.11205201
  Cr8  1.16838106  1.13136901  2.11117709
  Cr9  1.16983367  1.13277560  2.11380184
  S10  -0.09151431  -0.08861531  -0.16535950
  S11  0.09393532  0.09095963  0.16973409
  S12  0.08521967  0.08252008  0.15398556
  S13  -0.08376706  -0.08111348  -0.15136081
  S14  -0.02759955  -0.02672525  -0.04987032
  S15  0.02759955  0.02672525  0.04987032
  S16  0.03292578  0.03188276  0.05949442
  S17  -0.03147317  -0.03047616  -0.05686967
  S18  0.03292578  0.03188276  0.05949442
  S19  -0.03147317  -0.03047616  -0.05686967
  S20  0.03292578  0.03188276  0.05949442
  S21  -0.03147317  -0.03047616  -0.05686967
  S22  -0.02808376  -0.02719412  -0.05074524
  S23  0.02759955  0.02672525  0.04987032
  S24  -0.02808376  -0.02719412  -0.05074524
  S25  0.02759955  0.02672525  0.04987032
