# generated using pymatgen
data_Mg(FeS2)4
_symmetry_space_group_name_H-M   'P 1'
_cell_length_a   6.65845332
_cell_length_b   6.84539987
_cell_length_c   11.54077691
_cell_angle_alpha   106.58319871
_cell_angle_beta   90.01704428
_cell_angle_gamma   119.08357813
_symmetry_Int_Tables_number   1
_chemical_formula_structural   Mg(FeS2)4
_chemical_formula_sum   'Mg2 Fe8 S16'
_cell_volume   434.46739165
_cell_formula_units_Z   2
loop_
 _symmetry_equiv_pos_site_id
 _symmetry_equiv_pos_as_xyz
  1  'x, y, z'
loop_
 _atom_site_type_symbol
 _atom_site_label
 _atom_site_symmetry_multiplicity
 _atom_site_fract_x
 _atom_site_fract_y
 _atom_site_fract_z
 _atom_site_occupancy
  Mg  Mg0  1  0.99022300  0.98054400  0.99723400  1
  Mg  Mg1  1  0.48415900  0.96827200  0.49384400  1
  Fe  Fe2  1  0.71772300  0.00490200  0.76388800  1
  Fe  Fe3  1  0.28701000  0.00484500  0.76387000  1
  Fe  Fe4  1  0.50338400  0.00675300  0.97388000  1
  Fe  Fe5  1  0.23506100  0.47018300  0.74091600  1
  Fe  Fe6  1  0.74019300  0.48036500  0.24830600  1
  Fe  Fe7  1  0.25959100  0.01542100  0.25536300  1
  Fe  Fe8  1  0.75600300  0.01531200  0.25531200  1
  Fe  Fe9  1  0.00783900  0.01578100  0.50039300  1
  S  S10  1  0.40776400  0.81521400  0.12527300  1
  S  S11  1  0.91118800  0.82249100  0.64265800  1
  S  S12  1  0.12055400  0.24116000  0.37316500  1
  S  S13  1  0.63263700  0.26558600  0.87726600  1
  S  S14  1  0.87002400  0.22462600  0.63326200  1
  S  S15  1  0.39209000  0.23182000  0.12266100  1
  S  S16  1  0.35432100  0.22445000  0.63321900  1
  S  S17  1  0.83952200  0.23166000  0.12261800  1
  S  S18  1  0.11163000  0.22357300  0.85652700  1
  S  S19  1  0.62684900  0.25344200  0.37032500  1
  S  S20  1  0.14973500  0.74229600  0.86307900  1
  S  S21  1  0.65822200  0.75730900  0.36595700  1
  S  S22  1  0.37032800  0.74060900  0.64228900  1
  S  S23  1  0.88222200  0.76390600  0.14976100  1
  S  S24  1  0.59252600  0.74218400  0.86299100  1
  S  S25  1  0.09920200  0.75729400  0.36594600  1
loop_
 _atom_site_moment_label
 _atom_site_moment_crystalaxis_x
 _atom_site_moment_crystalaxis_y
 _atom_site_moment_crystalaxis_z
  Mg0  0.00048289  0.00099291  0.00085577
  Mg1  0.00096577  0.00198582  0.00171154
  Fe2  -0.25641206  -0.52723427  -0.45441284
  Fe3  -0.25786071  -0.53021299  -0.45698014
  Fe4  -0.26944996  -0.55404279  -0.47751857
  Fe5  0.56835592  1.16865298  1.00723900
  Fe6  0.47467618  0.97602879  0.84122000
  Fe7  0.76295867  1.56879500  1.35211352
  Fe8  0.73495133  1.51120632  1.30247898
  Fe9  0.73253690  1.50624178  1.29820014
  S10  0.03331908  0.06851067  0.05904800
  S11  0.02704157  0.05560286  0.04792301
  S12  0.03380197  0.06950358  0.05990376
  S13  0.01255502  0.02581561  0.02224997
  S14  0.02076407  0.04269505  0.03679803
  S15  0.01400367  0.02879434  0.02481727
  S16  0.02076407  0.04269505  0.03679803
  S17  0.01303790  0.02680852  0.02310574
  S18  0.02221272  0.04567378  0.03936533
  S19  0.01496944  0.03078016  0.02652881
  S20  0.00531174  0.01092199  0.00941345
  S21  0.00917482  0.01886526  0.01625959
  S22  0.00579462  0.01191490  0.01026922
  S23  0.00869193  0.01787235  0.01540382
  S24  0.00531174  0.01092199  0.00941345
  S25  0.00917482  0.01886526  0.01625959
