# generated using pymatgen
data_Ca(NiS2)2
_symmetry_space_group_name_H-M   'P 1'
_cell_length_a   7.06014040
_cell_length_b   7.19918492
_cell_length_c   12.54227147
_cell_angle_alpha   104.32161071
_cell_angle_beta   89.97918391
_cell_angle_gamma   60.64774384
_symmetry_Int_Tables_number   1
_chemical_formula_structural   Ca(NiS2)2
_chemical_formula_sum   'Ca4 Ni8 S16'
_cell_volume   532.77035630
_cell_formula_units_Z   4
loop_
 _symmetry_equiv_pos_site_id
 _symmetry_equiv_pos_as_xyz
  1  'x, y, z'
loop_
 _atom_site_type_symbol
 _atom_site_label
 _atom_site_symmetry_multiplicity
 _atom_site_fract_x
 _atom_site_fract_y
 _atom_site_fract_z
 _atom_site_occupancy
  Ca  Ca0  1  0.99986000  0.00000100  0.99996900  1
  Ca  Ca1  1  0.49977000  0.99999400  0.49996200  1
  Ca  Ca2  1  0.75008100  0.49995700  0.24999200  1
  Ca  Ca3  1  0.24978300  0.50008200  0.74992100  1
  Ni  Ni4  1  0.99987100  0.00021500  0.50014100  1
  Ni  Ni5  1  0.24999500  0.00016100  0.25005400  1
  Ni  Ni6  1  0.75003200  0.99989400  0.74976100  1
  Ni  Ni7  1  0.50024800  0.99989100  0.99997800  1
  Ni  Ni8  1  0.75061400  0.00008300  0.25024200  1
  Ni  Ni9  1  0.24979800  0.99982000  0.75000400  1
  Ni  Ni10  1  0.25012700  0.49985200  0.24988300  1
  Ni  Ni11  1  0.74966700  0.50007700  0.75008400  1
  S  S12  1  0.39016000  0.22024300  0.34048800  1
  S  S13  1  0.88983400  0.21984900  0.84065100  1
  S  S14  1  0.11015500  0.78004000  0.15931500  1
  S  S15  1  0.60983500  0.77962900  0.65940800  1
  S  S16  1  0.16139900  0.23399000  0.13316600  1
  S  S17  1  0.66126600  0.23364800  0.63306500  1
  S  S18  1  0.33843200  0.76645500  0.36673800  1
  S  S19  1  0.83852700  0.76601400  0.86663100  1
  S  S20  1  0.59170600  0.81778300  0.13976300  1
  S  S21  1  0.09133900  0.81736400  0.63909200  1
  S  S22  1  0.90877400  0.18288100  0.36103500  1
  S  S23  1  0.40856800  0.18234800  0.86029700  1
  S  S24  1  0.89521300  0.76651600  0.36682300  1
  S  S25  1  0.39528600  0.76589500  0.86673400  1
  S  S26  1  0.60486600  0.23391000  0.13342600  1
  S  S27  1  0.10479400  0.23340800  0.63337800  1
loop_
 _atom_site_moment_label
 _atom_site_moment_crystalaxis_x
 _atom_site_moment_crystalaxis_y
 _atom_site_moment_crystalaxis_z
  Ca0  0.02555337  -0.00028697  0.04528644
  Ca1  0.02653620  -0.00029801  0.04702822
  Ni4  -0.57740795  0.00648446  -1.02329933
  Ni5  0.00098282  -0.00001104  0.00174179
  Ni6  0.00147423  -0.00001656  0.00261268
  Ni7  0.58723617  -0.00659484  1.04071719
  Ni8  0.00343988  -0.00003863  0.00609625
  Ni9  0.00343988  -0.00003863  0.00609625
  Ni10  0.57052820  -0.00640720  1.01110682
  Ni11  0.57200243  -0.00642376  1.01371950
  S12  0.04127853  -0.00046357  0.07315502
  S13  0.02702761  -0.00030353  0.04789912
  S14  0.02702761  -0.00030353  0.04789912
  S15  0.04176994  -0.00046909  0.07402591
  S16  0.08010000  -0.00089955  0.14195557
  S17  -0.00491411  0.00005519  -0.00870893
  S18  -0.00442270  0.00004967  -0.00783804
  S19  0.08059141  -0.00090507  0.14282646
  S20  0.04570123  -0.00051324  0.08099305
  S21  -0.04717546  0.00052979  -0.08360573
  S22  -0.04668405  0.00052428  -0.08273484
  S23  0.04570123  -0.00051324  0.08099305
  S24  -0.00442270  0.00004967  -0.00783804
  S25  0.08059141  -0.00090507  0.14282646
  S26  0.08059141  -0.00090507  0.14282646
  S27  -0.00442270  0.00004967  -0.00783804
