# generated using pymatgen
data_Ca(CrS2)2
_symmetry_space_group_name_H-M   'P 1'
_cell_length_a   7.46438905
_cell_length_b   7.46453762
_cell_length_c   7.46442000
_cell_angle_alpha   60.00071332
_cell_angle_beta   60.00017590
_cell_angle_gamma   60.00049360
_symmetry_Int_Tables_number   1
_chemical_formula_structural   Ca(CrS2)2
_chemical_formula_sum   'Ca2 Cr4 S8'
_cell_volume   294.09171283
_cell_formula_units_Z   2
loop_
 _symmetry_equiv_pos_site_id
 _symmetry_equiv_pos_as_xyz
  1  'x, y, z'
loop_
 _atom_site_type_symbol
 _atom_site_label
 _atom_site_symmetry_multiplicity
 _atom_site_fract_x
 _atom_site_fract_y
 _atom_site_fract_z
 _atom_site_occupancy
  Ca  Ca0  1  0.99999800  0.00000200  0.00000000  1
  Ca  Ca1  1  0.75000100  0.74999900  0.75000000  1
  Cr  Cr2  1  0.37500000  0.37500000  0.37500000  1
  Cr  Cr3  1  0.37500000  0.37500000  0.87500000  1
  Cr  Cr4  1  0.37499900  0.87500000  0.37500000  1
  Cr  Cr5  1  0.87500000  0.37500000  0.37500000  1
  S  S6  1  0.14449100  0.14449900  0.14449400  1
  S  S7  1  0.60550800  0.60550100  0.18348400  1
  S  S8  1  0.18348400  0.60550100  0.60550600  1
  S  S9  1  0.60550600  0.18348700  0.60550200  1
  S  S10  1  0.56651700  0.14449800  0.14449400  1
  S  S11  1  0.14449500  0.56651200  0.14449700  1
  S  S12  1  0.60550900  0.60550100  0.60550600  1
  S  S13  1  0.14449200  0.14449900  0.56651600  1
loop_
 _atom_site_moment_label
 _atom_site_moment_crystalaxis_x
 _atom_site_moment_crystalaxis_y
 _atom_site_moment_crystalaxis_z
  Ca0  0.00000005  0.00000002  0.01699997
  Ca1  0.00000005  0.00000002  0.01699997
  Cr2  0.00000820  0.00000292  2.96499444
  Cr3  0.00000820  0.00000292  2.96599444
  Cr4  0.00000820  0.00000292  2.96599444
  Cr5  0.00000820  0.00000292  2.96499444
  S6  -0.00000024  -0.00000008  -0.08499984
  S7  -0.00000024  -0.00000008  -0.08499984
  S8  -0.00000024  -0.00000008  -0.08499984
  S9  -0.00000024  -0.00000008  -0.08499984
  S10  -0.00000024  -0.00000008  -0.08499984
  S11  -0.00000024  -0.00000008  -0.08499984
  S12  -0.00000024  -0.00000008  -0.08499984
  S13  -0.00000024  -0.00000008  -0.08499984
