# generated using pymatgen
data_Mg(FeS2)2
_symmetry_space_group_name_H-M   'P 1'
_cell_length_a   7.02911144
_cell_length_b   7.03439617
_cell_length_c   7.03354894
_cell_angle_alpha   121.57448566
_cell_angle_beta   92.61475772
_cell_angle_gamma   58.50147215
_symmetry_Int_Tables_number   1
_chemical_formula_structural   Mg(FeS2)2
_chemical_formula_sum   'Mg2 Fe4 S8'
_cell_volume   239.87437227
_cell_formula_units_Z   2
loop_
 _symmetry_equiv_pos_site_id
 _symmetry_equiv_pos_as_xyz
  1  'x, y, z'
loop_
 _atom_site_type_symbol
 _atom_site_label
 _atom_site_symmetry_multiplicity
 _atom_site_fract_x
 _atom_site_fract_y
 _atom_site_fract_z
 _atom_site_occupancy
  Mg  Mg0  1  0.99995100  0.99943900  0.00028800  1
  Mg  Mg1  1  0.75003500  0.50057400  0.74971100  1
  Fe  Fe2  1  0.37500100  0.25000100  0.37500200  1
  Fe  Fe3  1  0.87500100  0.75000400  0.37499600  1
  Fe  Fe4  1  0.37500700  0.74999700  0.37499700  1
  Fe  Fe5  1  0.37500300  0.24999500  0.87499700  1
  S  S6  1  0.14856900  0.27657600  0.12786900  1
  S  S7  1  0.60136900  0.77649000  0.17524000  1
  S  S8  1  0.17544200  0.22336200  0.60122000  1
  S  S9  1  0.62210900  0.77682600  0.60111000  1
  S  S10  1  0.57454600  0.27661700  0.14880700  1
  S  S11  1  0.12786500  0.72317300  0.14891500  1
  S  S12  1  0.60144900  0.22341500  0.62209800  1
  S  S13  1  0.14865300  0.72353100  0.57475000  1
loop_
 _atom_site_moment_label
 _atom_site_moment_crystalaxis_x
 _atom_site_moment_crystalaxis_y
 _atom_site_moment_crystalaxis_z
  Fe2  0.00009405  -1.21923026  -1.21911863
  Fe3  0.00009350  -1.21205832  -1.21194734
  Fe4  -0.00009484  1.22947589  1.22936332
  Fe5  -0.00009232  1.19668987  1.19658030
  S7  0.00000008  -0.00102456  -0.00102447
  S13  0.00000008  -0.00102456  -0.00102447
