# generated using pymatgen
data_Mg(VS2)4
_symmetry_space_group_name_H-M   'P 1'
_cell_length_a   6.97452668
_cell_length_b   12.00158237
_cell_length_c   6.91199743
_cell_angle_alpha   106.56157981
_cell_angle_beta   120.39605993
_cell_angle_gamma   90.00810037
_symmetry_Int_Tables_number   1
_chemical_formula_structural   Mg(VS2)4
_chemical_formula_sum   'Mg2 V8 S16'
_cell_volume   470.99321484
_cell_formula_units_Z   2
loop_
 _symmetry_equiv_pos_site_id
 _symmetry_equiv_pos_as_xyz
  1  'x, y, z'
loop_
 _atom_site_type_symbol
 _atom_site_label
 _atom_site_symmetry_multiplicity
 _atom_site_fract_x
 _atom_site_fract_y
 _atom_site_fract_z
 _atom_site_occupancy
  Mg  Mg0  1  0.99950900  0.99846600  0.98831800  1
  Mg  Mg1  1  0.51108600  0.50436800  0.01123100  1
  V  V2  1  0.75290000  0.24920900  0.50165800  1
  V  V3  1  0.26960100  0.74871900  0.49786100  1
  V  V4  1  0.98591800  0.46829000  0.98648300  1
  V  V5  1  0.50597700  0.02468200  0.03057500  1
  V  V6  1  0.26610300  0.24861600  0.99896700  1
  V  V7  1  0.73949000  0.73212500  0.94417600  1
  V  V8  1  0.72612300  0.24757400  0.00332800  1
  V  V9  1  0.27872900  0.77062600  0.04049100  1
  S  S10  1  0.11463500  0.36607100  0.23623800  1
  S  S11  1  0.62337800  0.87618200  0.23920100  1
  S  S12  1  0.37218300  0.12329600  0.75234700  1
  S  S13  1  0.88435100  0.62536500  0.75549100  1
  S  S14  1  0.15320500  0.87328500  0.76239800  1
  S  S15  1  0.62057100  0.36778000  0.74409700  1
  S  S16  1  0.36690100  0.63403400  0.75409500  1
  S  S17  1  0.87815300  0.13662000  0.76364700  1
  S  S18  1  0.61371600  0.88005100  0.76485000  1
  S  S19  1  0.12053700  0.37195300  0.74874100  1
  S  S20  1  0.10632500  0.86695500  0.24187900  1
  S  S21  1  0.62736300  0.37486200  0.26099200  1
  S  S22  1  0.88935900  0.62700500  0.22880700  1
  S  S23  1  0.37984700  0.13436100  0.26255000  1
  S  S24  1  0.34103800  0.62057400  0.22560100  1
  S  S25  1  0.87300500  0.12893200  0.25597900  1
loop_
 _atom_site_moment_label
 _atom_site_moment_crystalaxis_x
 _atom_site_moment_crystalaxis_y
 _atom_site_moment_crystalaxis_z
  Mg0  0.00254927  0.00429033  0.00504491
  Mg1  0.00305912  0.00514840  0.00605389
  V2  -0.70461759  -1.18584801  -1.39441346
  V3  0.82596273  1.39006785  1.63455123
  V4  0.45122038  0.75938892  0.89294928
  V5  0.59092025  0.99449916  1.16941042
  V6  0.70614715  1.18842221  1.39744040
  V7  0.55574036  0.93529257  1.09979064
  V8  0.71736393  1.20729967  1.41963801
  V9  0.61692278  1.03826056  1.22086851
  S10  -0.03619960  -0.06092273  -0.07163774
  S11  -0.05251491  -0.08838086  -0.10392517
  S12  -0.03619960  -0.06092273  -0.07163774
  S13  -0.05404448  -0.09095506  -0.10695212
  S14  -0.03110107  -0.05234206  -0.06154792
  S15  -0.01631531  -0.02745813  -0.03228743
  S16  -0.03161092  -0.05320013  -0.06255690
  S17  -0.00917736  -0.01544520  -0.01816168
  S18  -0.03925872  -0.06607113  -0.07769163
  S19  -0.01529561  -0.02574200  -0.03026947
  S20  -0.02957151  -0.04976786  -0.05852097
  S21  -0.01223648  -0.02059360  -0.02421557
  S22  -0.02753209  -0.04633560  -0.05448504
  S23  -0.01682517  -0.02831620  -0.03329641
  S24  -0.04180799  -0.07036146  -0.08273654
  S25  -0.01937443  -0.03260653  -0.03834133
