# generated using pymatgen
data_Mg(VS2)2
_symmetry_space_group_name_H-M   'P 1'
_cell_length_a   7.09758200
_cell_length_b   7.31887387
_cell_length_c   7.09758200
_cell_angle_alpha   60.99525119
_cell_angle_beta   90.00000000
_cell_angle_gamma   119.00474881
_symmetry_Int_Tables_number   1
_chemical_formula_structural   Mg(VS2)2
_chemical_formula_sum   'Mg2 V4 S8'
_cell_volume   268.35663598
_cell_formula_units_Z   2
loop_
 _symmetry_equiv_pos_site_id
 _symmetry_equiv_pos_as_xyz
  1  'x, y, z'
loop_
 _atom_site_type_symbol
 _atom_site_label
 _atom_site_symmetry_multiplicity
 _atom_site_fract_x
 _atom_site_fract_y
 _atom_site_fract_z
 _atom_site_occupancy
  Mg  Mg0  1  0.50000000  0.00000000  0.50000000  1
  Mg  Mg1  1  0.25000000  0.50000000  0.25000000  1
  V  V2  1  0.87500000  0.25000000  0.87500000  1
  V  V3  1  0.87500000  0.75000000  0.87500000  1
  V  V4  1  0.37500000  0.25000000  0.87500000  1
  V  V5  1  0.87500000  0.75000000  0.37500000  1
  S  S6  1  0.10538100  0.21076200  0.13067900  1
  S  S7  1  0.13067900  0.78923800  0.10538100  1
  S  S8  1  0.65855900  0.78923800  0.10538100  1
  S  S9  1  0.64461900  0.28923800  0.61932100  1
  S  S10  1  0.64461900  0.28923800  0.09144100  1
  S  S11  1  0.61932100  0.71076200  0.64461900  1
  S  S12  1  0.10538100  0.21076200  0.65855900  1
  S  S13  1  0.09144100  0.71076200  0.64461900  1
loop_
 _atom_site_moment_label
 _atom_site_moment_crystalaxis_x
 _atom_site_moment_crystalaxis_y
 _atom_site_moment_crystalaxis_z
  Mg0  0.00000000  0.00000000  0.01500000
  Mg1  0.00000000  0.00000000  0.01500000
  V2  0.00000000  0.00000000  1.86300000
  V3  0.00000000  0.00000000  1.83000000
  V4  0.00000000  0.00000000  1.84400000
  V5  0.00000000  0.00000000  1.88100000
  S6  0.00000000  0.00000000  -0.06100000
  S7  0.00000000  0.00000000  -0.06100000
  S8  0.00000000  0.00000000  -0.06100000
  S9  0.00000000  0.00000000  -0.06100000
  S10  0.00000000  0.00000000  -0.06100000
  S11  0.00000000  0.00000000  -0.06100000
  S12  0.00000000  0.00000000  -0.06100000
  S13  0.00000000  0.00000000  -0.06100000
