# generated using pymatgen
data_Ca(MnS2)2
_symmetry_space_group_name_H-M   'P 1'
_cell_length_a   7.42630938
_cell_length_b   7.42940075
_cell_length_c   7.42864945
_cell_angle_alpha   118.04083955
_cell_angle_beta   62.01291211
_cell_angle_gamma   86.53375965
_symmetry_Int_Tables_number   1
_chemical_formula_structural   Ca(MnS2)2
_chemical_formula_sum   'Ca2 Mn4 S8'
_cell_volume   297.94878425
_cell_formula_units_Z   2
loop_
 _symmetry_equiv_pos_site_id
 _symmetry_equiv_pos_as_xyz
  1  'x, y, z'
loop_
 _atom_site_type_symbol
 _atom_site_label
 _atom_site_symmetry_multiplicity
 _atom_site_fract_x
 _atom_site_fract_y
 _atom_site_fract_z
 _atom_site_occupancy
  Ca  Ca0  1  0.49994500  0.49981300  0.99997000  1
  Ca  Ca1  1  0.25005600  0.25018700  0.50003000  1
  Mn  Mn2  1  0.37500000  0.87500000  0.75000000  1
  Mn  Mn3  1  0.87500000  0.87500000  0.25000000  1
  Mn  Mn4  1  0.87500000  0.87500000  0.75000000  1
  Mn  Mn5  1  0.87500000  0.37500100  0.25000000  1
  S  S6  1  0.64569000  0.64127200  0.28677100  1
  S  S7  1  0.10447900  0.68252700  0.78685100  1
  S  S8  1  0.10876100  0.10428700  0.78670600  1
  S  S9  1  0.68246200  0.10454500  0.21324900  1
  S  S10  1  0.64123900  0.64571200  0.71329300  1
  S  S11  1  0.06753700  0.64545600  0.28675000  1
  S  S12  1  0.10431100  0.10872700  0.21322900  1
  S  S13  1  0.64552100  0.06747300  0.71314900  1
loop_
 _atom_site_moment_label
 _atom_site_moment_crystalaxis_x
 _atom_site_moment_crystalaxis_y
 _atom_site_moment_crystalaxis_z
  Mn2  -0.00084958  -3.40251079  -3.40211567
  Mn3  -0.00084982  -3.40348210  -3.40308687
  Mn4  0.00084982  3.40348210  3.40308687
  Mn5  0.00084958  3.40251079  3.40211567
  S6  -0.00000412  -0.01651233  -0.01651041
  S7  -0.00000388  -0.01554101  -0.01553921
  S8  0.00000388  0.01554101  0.01553921
  S9  0.00000388  0.01554101  0.01553921
  S10  0.00000388  0.01554101  0.01553921
  S11  0.00000388  0.01554101  0.01553921
  S12  -0.00000412  -0.01651233  -0.01651041
  S13  -0.00000388  -0.01554101  -0.01553921
