# generated using pymatgen
data_CrSe2
_symmetry_space_group_name_H-M   'P 1'
_cell_length_a   7.15370961
_cell_length_b   7.12783099
_cell_length_c   7.15422592
_cell_angle_alpha   59.39517302
_cell_angle_beta   59.51007824
_cell_angle_gamma   59.63892849
_symmetry_Int_Tables_number   1
_chemical_formula_structural   CrSe2
_chemical_formula_sum   'Cr4 Se8'
_cell_volume   255.10154598
_cell_formula_units_Z   4
loop_
 _symmetry_equiv_pos_site_id
 _symmetry_equiv_pos_as_xyz
  1  'x, y, z'
loop_
 _atom_site_type_symbol
 _atom_site_label
 _atom_site_symmetry_multiplicity
 _atom_site_fract_x
 _atom_site_fract_y
 _atom_site_fract_z
 _atom_site_occupancy
  Cr  Cr0  1  0.49228300  0.02110700  0.49325000  1
  Cr  Cr1  1  0.01724600  0.49266200  0.49423400  1
  Cr  Cr2  1  0.49533500  0.49435500  0.49610700  1
  Cr  Cr3  1  0.49440400  0.49333100  0.01617100  1
  Se  Se4  1  0.24757800  0.24800500  0.24870000  1
  Se  Se5  1  0.74493400  0.74590500  0.26806700  1
  Se  Se6  1  0.26689000  0.74470100  0.74451500  1
  Se  Se7  1  0.74530800  0.26366800  0.74624800  1
  Se  Se8  1  0.75332800  0.25079700  0.24774700  1
  Se  Se9  1  0.25138200  0.75185900  0.24882700  1
  Se  Se10  1  0.24797800  0.24842600  0.75497900  1
  Se  Se11  1  0.74333600  0.74518500  0.74115700  1
loop_
 _atom_site_moment_label
 _atom_site_moment_crystalaxis_x
 _atom_site_moment_crystalaxis_y
 _atom_site_moment_crystalaxis_z
  Cr0  -0.00667401  -0.00652582  2.51669153
  Cr1  -0.00675644  -0.00660642  2.54777418
  Cr2  -0.00682557  -0.00667402  2.57384349
  Cr3  -0.00674581  -0.00659602  2.54376351
  Se4  0.00050255  0.00049139  -0.18950386
  Se5  0.00057966  0.00056678  -0.21858118
  Se6  0.00057434  0.00056158  -0.21657584
  Se7  0.00056370  0.00055118  -0.21256518
  Se8  0.00049989  0.00048879  -0.18850120
  Se9  0.00049457  0.00048359  -0.18649587
  Se10  0.00049989  0.00048879  -0.18850120
  Se11  0.00058231  0.00056938  -0.21958384
