# generated using pymatgen
data_Mg(NiS2)4
_symmetry_space_group_name_H-M   'P 1'
_cell_length_a   6.75678193
_cell_length_b   9.84588144
_cell_length_c   7.09650917
_cell_angle_alpha   86.19469999
_cell_angle_beta   90.00013486
_cell_angle_gamma   90.00040487
_symmetry_Int_Tables_number   1
_chemical_formula_structural   Mg(NiS2)4
_chemical_formula_sum   'Mg2 Ni8 S16'
_cell_volume   471.06489613
_cell_formula_units_Z   2
loop_
 _symmetry_equiv_pos_site_id
 _symmetry_equiv_pos_as_xyz
  1  'x, y, z'
loop_
 _atom_site_type_symbol
 _atom_site_label
 _atom_site_symmetry_multiplicity
 _atom_site_fract_x
 _atom_site_fract_y
 _atom_site_fract_z
 _atom_site_occupancy
  Mg  Mg0  1  0.99999200  0.49999300  0.99999600  1
  Mg  Mg1  1  0.50000700  0.00001000  0.50000500  1
  Ni  Ni2  1  0.50000200  0.49999300  0.50000200  1
  Ni  Ni3  1  0.99999500  0.00000700  0.99999900  1
  Ni  Ni4  1  0.50000900  0.00000500  0.99999800  1
  Ni  Ni5  1  0.99999000  0.49999500  0.50000100  1
  Ni  Ni6  1  0.74998700  0.25000700  0.74999200  1
  Ni  Ni7  1  0.25001400  0.74999200  0.25000900  1
  Ni  Ni8  1  0.25001500  0.25000800  0.74999200  1
  Ni  Ni9  1  0.74998500  0.74999200  0.25000700  1
  S  S10  1  0.50002500  0.76768700  0.03642000  1
  S  S11  1  0.99997400  0.26767000  0.53645800  1
  S  S12  1  0.50002700  0.23232000  0.96356400  1
  S  S13  1  0.99997200  0.73232100  0.46355900  1
  S  S14  1  0.99997500  0.75840600  0.03646300  1
  S  S15  1  0.50002300  0.25838700  0.53642400  1
  S  S16  1  0.75656500  0.48170400  0.72049400  1
  S  S17  1  0.25654300  0.98169900  0.22042200  1
  S  S18  1  0.99997800  0.24159300  0.96352100  1
  S  S19  1  0.50002700  0.74161600  0.46359100  1
  S  S20  1  0.24343000  0.48169500  0.72049100  1
  S  S21  1  0.74346300  0.98170200  0.22042200  1
  S  S22  1  0.75656000  0.51828400  0.27950800  1
  S  S23  1  0.25654400  0.01831700  0.77957700  1
  S  S24  1  0.24343200  0.51829100  0.27950900  1
  S  S25  1  0.74346000  0.01830800  0.77957400  1
loop_
 _atom_site_moment_label
 _atom_site_moment_crystalaxis_x
 _atom_site_moment_crystalaxis_y
 _atom_site_moment_crystalaxis_z
  Mg0  -0.00334619  -0.00483511  -0.00349067
  Mg1  0.00334619  0.00483511  0.00349067
  Ni2  -0.45555969  -0.65826617  -0.47522936
  Ni3  0.45460364  0.65688471  0.47423203
  Ni4  0.00764843  0.01105169  0.00797867
  Ni5  -0.00764843  -0.01105169  -0.00797867
  S10  -0.00095605  -0.00138146  -0.00099733
  S11  0.00095605  0.00138146  0.00099733
  S12  -0.00095605  -0.00138146  -0.00099733
  S13  0.00095605  0.00138146  0.00099733
  S14  0.03011570  0.04351602  0.03141600
  S15  -0.03011570  -0.04351602  -0.03141600
  S16  -0.02485740  -0.03591799  -0.02593067
  S17  0.02485740  0.03591799  0.02593067
  S18  0.03011570  0.04351602  0.03141600
  S19  -0.03011570  -0.04351602  -0.03141600
  S20  -0.02485740  -0.03591799  -0.02593067
  S21  0.02485740  0.03591799  0.02593067
  S22  -0.02485740  -0.03591799  -0.02593067
  S23  0.02485740  0.03591799  0.02593067
  S24  -0.02485740  -0.03591799  -0.02593067
  S25  0.02485740  0.03591799  0.02593067
