# generated using pymatgen
data_MgCr2S5
_symmetry_space_group_name_H-M   'P 1'
_cell_length_a   3.65073776
_cell_length_b   6.46173679
_cell_length_c   13.56457671
_cell_angle_alpha   88.12274769
_cell_angle_beta   90.04288739
_cell_angle_gamma   90.05626213
_symmetry_Int_Tables_number   1
_chemical_formula_structural   MgCr2S5
_chemical_formula_sum   'Mg2 Cr4 S10'
_cell_volume   319.81783398
_cell_formula_units_Z   2
loop_
 _symmetry_equiv_pos_site_id
 _symmetry_equiv_pos_as_xyz
  1  'x, y, z'
loop_
 _atom_site_type_symbol
 _atom_site_label
 _atom_site_symmetry_multiplicity
 _atom_site_fract_x
 _atom_site_fract_y
 _atom_site_fract_z
 _atom_site_occupancy
  Mg  Mg0  1  0.00060000  0.08099400  0.47730700  1
  Mg  Mg1  1  0.50025500  0.92439800  0.01104600  1
  Cr  Cr2  1  0.00016200  0.49738200  0.15493000  1
  Cr  Cr3  1  0.49977800  0.49579900  0.66063300  1
  Cr  Cr4  1  0.50047500  0.50003500  0.34630200  1
  Cr  Cr5  1  0.99942600  0.50618100  0.84101900  1
  S  S6  1  0.99977300  0.66101000  0.99707900  1
  S  S7  1  0.50104600  0.33831800  0.50488200  1
  S  S8  1  0.00009900  0.29758400  0.30281000  1
  S  S9  1  0.50056300  0.69844300  0.19797000  1
  S  S10  1  0.99946600  0.29997200  0.70364500  1
  S  S11  1  0.49977300  0.70368200  0.79745200  1
  S  S12  1  0.49587100  0.81082700  0.58185500  1
  S  S13  1  0.00198600  0.18798500  0.92044700  1
  S  S14  1  0.99965000  0.18082000  0.07903600  1
  S  S15  1  0.50107600  0.81657000  0.42358800  1
loop_
 _atom_site_moment_label
 _atom_site_moment_crystalaxis_x
 _atom_site_moment_crystalaxis_y
 _atom_site_moment_crystalaxis_z
  Mg0  0.00000141  -0.00007166  0.00400171
  Mg1  -0.00000071  0.00003583  -0.00200085
  Cr2  -0.00091561  0.04650937  -2.59710787
  Cr3  -0.00080310  0.04079424  -2.27797173
  Cr4  0.00092795  -0.04713643  2.63212280
  Cr5  0.00082990  -0.04215584  2.35400416
  S6  0.00000106  -0.00005375  0.00300128
  S7  -0.00000106  0.00005375  -0.00300128
  S8  -0.00002081  0.00105703  -0.05902518
  S9  0.00002081  -0.00105703  0.05902518
  S10  0.00002151  -0.00109286  0.06102603
  S11  -0.00002398  0.00121827  -0.06802902
  S12  0.00001552  -0.00078829  0.04401878
  S13  -0.00001305  0.00066288  -0.03701579
  S14  0.00000776  -0.00039415  0.02200939
  S15  -0.00000635  0.00032248  -0.01800768
