# generated using pymatgen
data_Ca(CrS2)4
_symmetry_space_group_name_H-M   'P 1'
_cell_length_a   7.07837686
_cell_length_b   7.07813460
_cell_length_c   7.08009444
_cell_angle_alpha   61.13604167
_cell_angle_beta   61.09172946
_cell_angle_gamma   61.16320308
_symmetry_Int_Tables_number   1
_chemical_formula_structural   Ca(CrS2)4
_chemical_formula_sum   'Ca1 Cr4 S8'
_cell_volume   257.20865057
_cell_formula_units_Z   1
loop_
 _symmetry_equiv_pos_site_id
 _symmetry_equiv_pos_as_xyz
  1  'x, y, z'
loop_
 _atom_site_type_symbol
 _atom_site_label
 _atom_site_symmetry_multiplicity
 _atom_site_fract_x
 _atom_site_fract_y
 _atom_site_fract_z
 _atom_site_occupancy
  Ca  Ca0  1  0.00000000  0.00000000  0.00000000  1
  Cr  Cr1  1  0.50000100  0.50000200  0.49999900  1
  Cr  Cr2  1  0.49999800  0.49999900  0.00000400  1
  Cr  Cr3  1  0.50000100  0.99999900  0.50000000  1
  Cr  Cr4  1  0.99999700  0.50000100  0.50000100  1
  S  S5  1  0.73377700  0.28777900  0.73374200  1
  S  S6  1  0.73373500  0.73379200  0.28783800  1
  S  S7  1  0.28784800  0.73377300  0.73367800  1
  S  S8  1  0.73766100  0.73760800  0.73763100  1
  S  S9  1  0.26234000  0.26239300  0.26236800  1
  S  S10  1  0.26626500  0.26620900  0.71215900  1
  S  S11  1  0.71215500  0.26622500  0.26632200  1
  S  S12  1  0.26622200  0.71222100  0.26625900  1
loop_
 _atom_site_moment_label
 _atom_site_moment_crystalaxis_x
 _atom_site_moment_crystalaxis_y
 _atom_site_moment_crystalaxis_z
  Ca0  0.00000054  -0.00000080  -0.00199987
  Cr1  -0.00071508  0.00106840  2.66082976
  Cr2  -0.00073281  0.00109490  2.72682553
  Cr3  -0.00073254  0.00109450  2.72582560
  Cr4  -0.00073254  0.00109450  2.72582560
  S5  0.00003252  -0.00004858  -0.12099226
  S6  0.00003278  -0.00004898  -0.12199219
  S7  0.00003278  -0.00004898  -0.12199219
  S8  0.00006503  -0.00009716  -0.24198452
  S9  0.00006503  -0.00009716  -0.24198452
  S10  0.00003278  -0.00004898  -0.12199219
  S11  0.00003278  -0.00004898  -0.12199219
  S12  0.00003252  -0.00004858  -0.12099226
