# generated using pymatgen
data_Ca(VS2)4
_symmetry_space_group_name_H-M   'P 1'
_cell_length_a   6.66129654
_cell_length_b   7.88116348
_cell_length_c   11.46614231
_cell_angle_alpha   104.24979199
_cell_angle_beta   89.99174579
_cell_angle_gamma   114.98157377
_symmetry_Int_Tables_number   1
_chemical_formula_structural   Ca(VS2)4
_chemical_formula_sum   'Ca2 V8 S16'
_cell_volume   525.14795241
_cell_formula_units_Z   2
loop_
 _symmetry_equiv_pos_site_id
 _symmetry_equiv_pos_as_xyz
  1  'x, y, z'
loop_
 _atom_site_type_symbol
 _atom_site_label
 _atom_site_symmetry_multiplicity
 _atom_site_fract_x
 _atom_site_fract_y
 _atom_site_fract_z
 _atom_site_occupancy
  Ca  Ca0  1  0.24777600  0.49525700  0.76226000  1
  Ca  Ca1  1  0.74786000  0.49562900  0.26355700  1
  V  V2  1  0.00102400  0.00211400  0.01105000  1
  V  V3  1  0.50136300  0.00258600  0.51234000  1
  V  V4  1  0.72894900  0.00007400  0.74732900  1
  V  V5  1  0.27127900  0.00000700  0.74748200  1
  V  V6  1  0.49932600  0.99829300  0.99126000  1
  V  V7  1  0.22882600  0.00021500  0.24558900  1
  V  V8  1  0.77118500  0.00014500  0.24559000  1
  V  V9  1  0.99870400  0.99792000  0.48886300  1
  S  S10  1  0.40346800  0.80698400  0.13326300  1
  S  S11  1  0.90468800  0.80918900  0.63342200  1
  S  S12  1  0.10901900  0.21822300  0.36855200  1
  S  S13  1  0.60907400  0.21800800  0.86929300  1
  S  S14  1  0.14197700  0.79468700  0.88183500  1
  S  S15  1  0.64173200  0.79554700  0.38122100  1
  S  S16  1  0.09529800  0.19051900  0.86665100  1
  S  S17  1  0.59424400  0.18874600  0.36606300  1
  S  S18  1  0.35607900  0.20970400  0.61704300  1
  S  S19  1  0.85711700  0.21108800  0.11713700  1
  S  S20  1  0.85357800  0.21001600  0.61707000  1
  S  S21  1  0.35398100  0.21110500  0.11710800  1
  S  S22  1  0.65293700  0.79474100  0.88175300  1
  S  S23  1  0.15370500  0.79575300  0.38129700  1
  S  S24  1  0.38856800  0.77696300  0.62673800  1
  S  S25  1  0.88823900  0.77648800  0.12623800  1
loop_
 _atom_site_moment_label
 _atom_site_moment_crystalaxis_x
 _atom_site_moment_crystalaxis_y
 _atom_site_moment_crystalaxis_z
  Ca0  -0.00255291  -0.00604357  -0.00435112
  Ca1  0.00255291  0.00604357  0.00435112
  V2  0.45952393  1.08784327  0.78320132
  V3  -0.45739650  -1.08280696  -0.77957538
  V4  -0.48122367  -1.13921365  -0.82018582
  V5  -0.48164915  -1.14022091  -0.82091101
  V6  -0.46803363  -1.10798852  -0.79770504
  V7  0.48335109  1.14424996  0.82381176
  V8  0.47186300  1.11705388  0.80423172
  V9  0.46633169  1.10395947  0.79480430
  S11  0.00127646  0.00302179  0.00217556
  S12  -0.01957232  -0.04633407  -0.03335857
  S13  0.02042329  0.04834859  0.03480895
  S14  0.00510582  0.01208715  0.00870224
  S15  -0.00468034  -0.01107989  -0.00797705
  S16  0.00340388  0.00805810  0.00580149
  S17  -0.00340388  -0.00805810  -0.00580149
  S18  0.00936067  0.02215977  0.01595410
  S19  -0.00936067  -0.02215977  -0.01595410
  S20  0.00936067  0.02215977  0.01595410
  S21  -0.00936067  -0.02215977  -0.01595410
  S22  0.00510582  0.01208715  0.00870224
  S23  -0.00468034  -0.01107989  -0.00797705
  S24  0.01787037  0.04230502  0.03045783
  S25  -0.01787037  -0.04230502  -0.03045783
