# generated using pymatgen
data_Ca(FeS2)2
_symmetry_space_group_name_H-M   'P 1'
_cell_length_a   7.26818867
_cell_length_b   7.28292366
_cell_length_c   7.28292853
_cell_angle_alpha   60.64179148
_cell_angle_beta   60.08050974
_cell_angle_gamma   60.08050299
_symmetry_Int_Tables_number   1
_chemical_formula_structural   Ca(FeS2)2
_chemical_formula_sum   'Ca2 Fe4 S8'
_cell_volume   274.23183211
_cell_formula_units_Z   2
loop_
 _symmetry_equiv_pos_site_id
 _symmetry_equiv_pos_as_xyz
  1  'x, y, z'
loop_
 _atom_site_type_symbol
 _atom_site_label
 _atom_site_symmetry_multiplicity
 _atom_site_fract_x
 _atom_site_fract_y
 _atom_site_fract_z
 _atom_site_occupancy
  Ca  Ca0  1  0.00001300  0.99996700  0.99998200  1
  Ca  Ca1  1  0.00001200  0.49998200  0.49996700  1
  Fe  Fe2  1  0.50013900  0.00005200  0.50005100  1
  Fe  Fe3  1  0.99990500  0.99998300  0.49998300  1
  Fe  Fe4  1  0.37768100  0.37241500  0.87241500  1
  Fe  Fe5  1  0.62229800  0.62764500  0.12764500  1
  S  S6  1  0.73480600  0.77872100  0.75158000  1
  S  S7  1  0.73480600  0.25157900  0.27872200  1
  S  S8  1  0.26523300  0.22128500  0.24826800  1
  S  S9  1  0.26523300  0.74826800  0.72128400  1
  S  S10  1  0.25160200  0.76963800  0.26963800  1
  S  S11  1  0.29085200  0.23050600  0.73050600  1
  S  S12  1  0.70910700  0.76958400  0.26958300  1
  S  S13  1  0.74831200  0.23037600  0.73037600  1
loop_
 _atom_site_moment_label
 _atom_site_moment_crystalaxis_x
 _atom_site_moment_crystalaxis_y
 _atom_site_moment_crystalaxis_z
  Ca0  -0.00015604  0.00020824  0.03597525
  Ca1  -0.00015604  0.00020824  0.03597525
  Fe2  0.01378771  -0.01840047  -3.17881331
  Fe3  0.01381372  -0.01843518  -3.18480918
  Fe4  -0.01310287  0.01748652  3.02092192
  Fe5  -0.01311588  0.01750388  3.02391986
  S6  0.00013003  -0.00017353  -0.02997938
  S7  0.00013003  -0.00017353  -0.02997938
  S8  0.00012570  -0.00016775  -0.02898006
  S9  0.00012570  -0.00016775  -0.02898006
  S10  -0.00007368  0.00009834  0.01698831
  S11  -0.00007368  0.00009834  0.01698831
  S12  -0.00007368  0.00009834  0.01698831
  S13  -0.00007368  0.00009834  0.01698831
