# generated using pymatgen
data_Mg(MnS2)2
_symmetry_space_group_name_H-M   'P 1'
_cell_length_a   6.99963338
_cell_length_b   7.16921005
_cell_length_c   7.16288065
_cell_angle_alpha   61.83594120
_cell_angle_beta   60.80211590
_cell_angle_gamma   60.74551908
_symmetry_Int_Tables_number   1
_chemical_formula_structural   Mg(MnS2)2
_chemical_formula_sum   'Mg2 Mn4 S8'
_cell_volume   260.56030764
_cell_formula_units_Z   2
loop_
 _symmetry_equiv_pos_site_id
 _symmetry_equiv_pos_as_xyz
  1  'x, y, z'
loop_
 _atom_site_type_symbol
 _atom_site_label
 _atom_site_symmetry_multiplicity
 _atom_site_fract_x
 _atom_site_fract_y
 _atom_site_fract_z
 _atom_site_occupancy
  Mg  Mg0  1  0.99999900  0.00000000  0.00000000  1
  Mg  Mg1  1  0.00000000  0.50000000  0.50000000  1
  Mn  Mn2  1  0.50000000  0.00000000  0.00000000  1
  Mn  Mn3  1  0.49999900  0.50000000  0.50000000  1
  Mn  Mn4  1  0.00000000  0.00000000  0.49999900  1
  Mn  Mn5  1  0.50000000  0.00000000  0.50000000  1
  S  S6  1  0.25206400  0.78089800  0.71470000  1
  S  S7  1  0.74793600  0.21910200  0.28530000  1
  S  S8  1  0.25183200  0.21516900  0.28130400  1
  S  S9  1  0.74816800  0.78483100  0.71869600  1
  S  S10  1  0.24081700  0.76477000  0.26550900  1
  S  S11  1  0.27114200  0.23514300  0.73465200  1
  S  S12  1  0.75918300  0.23523100  0.73449100  1
  S  S13  1  0.72885900  0.76485600  0.26534800  1
loop_
 _atom_site_moment_label
 _atom_site_moment_crystalaxis_x
 _atom_site_moment_crystalaxis_y
 _atom_site_moment_crystalaxis_z
  Mg0  -0.00004791  0.00010462  -0.01202569
  Mg1  -0.00004791  0.00010462  -0.01202569
  Mn2  -0.01646930  0.03596313  -4.13383055
  Mn3  -0.01640941  0.03583236  -4.11879844
  Mn4  0.01066412  -0.02328667  2.67671792
  Mn5  0.01067211  -0.02330411  2.67872220
  S6  -0.00025153  0.00054926  -0.06313487
  S7  -0.00025153  0.00054926  -0.06313487
  S8  -0.00025552  0.00055797  -0.06413701
  S9  -0.00025552  0.00055797  -0.06413701
  S10  -0.00021161  0.00046207  -0.05311346
  S11  -0.00021161  0.00046207  -0.05311346
  S12  -0.00021161  0.00046207  -0.05311346
  S13  -0.00021161  0.00046207  -0.05311346
