# generated using pymatgen
data_Mg(VS2)4
_symmetry_space_group_name_H-M   'P 1'
_cell_length_a   6.58193655
_cell_length_b   11.33179066
_cell_length_c   7.41025806
_cell_angle_alpha   104.94458312
_cell_angle_beta   116.37877994
_cell_angle_gamma   89.98235169
_symmetry_Int_Tables_number   1
_chemical_formula_structural   Mg(VS2)4
_chemical_formula_sum   'Mg2 V8 S16'
_cell_volume   474.21120462
_cell_formula_units_Z   2
loop_
 _symmetry_equiv_pos_site_id
 _symmetry_equiv_pos_as_xyz
  1  'x, y, z'
loop_
 _atom_site_type_symbol
 _atom_site_label
 _atom_site_symmetry_multiplicity
 _atom_site_fract_x
 _atom_site_fract_y
 _atom_site_fract_z
 _atom_site_occupancy
  Mg  Mg0  1  0.24880900  0.76539100  0.49651900  1
  Mg  Mg1  1  0.74879100  0.27017500  0.49657900  1
  V  V2  1  0.27315200  0.74322800  0.00138900  1
  V  V3  1  0.72792000  0.74305300  0.00142000  1
  V  V4  1  0.49854900  0.99925500  0.99859700  1
  V  V5  1  0.00034300  0.00957600  0.99977700  1
  V  V6  1  0.50028800  0.51632300  0.00016200  1
  V  V7  1  0.77252500  0.24031600  0.00191600  1
  V  V8  1  0.22954800  0.24042300  0.00190600  1
  V  V9  1  0.99836800  0.49540400  0.99697800  1
  S  S10  1  0.39202400  0.12971500  0.78405100  1
  S  S11  1  0.89342100  0.63053100  0.78718700  1
  S  S12  1  0.11605600  0.37078300  0.23204900  1
  S  S13  1  0.61627800  0.87204100  0.23285200  1
  S  S14  1  0.64092700  0.87695300  0.77841200  1
  S  S15  1  0.14377500  0.37712300  0.78008800  1
  S  S16  1  0.10363600  0.86646700  0.20746000  1
  S  S17  1  0.60142800  0.36710200  0.20254600  1
  S  S18  1  0.86670800  0.62134400  0.23354000  1
  S  S19  1  0.36752300  0.12105900  0.23511000  1
  S  S20  1  0.36679300  0.62122900  0.23323500  1
  S  S21  1  0.86725000  0.12090100  0.23460000  1
  S  S22  1  0.13673200  0.87670700  0.77762800  1
  S  S23  1  0.63624200  0.37701300  0.77987000  1
  S  S24  1  0.37568500  0.62435700  0.75170800  1
  S  S25  1  0.87722800  0.12352900  0.75442300  1
loop_
 _atom_site_moment_label
 _atom_site_moment_crystalaxis_x
 _atom_site_moment_crystalaxis_y
 _atom_site_moment_crystalaxis_z
  Mg0  -0.00178777  -0.00305494  -0.00402570
  Mg1  0.00223471  0.00381868  0.00503212
  V2  -0.33788777  -0.57738397  -0.76085677
  V3  -0.32671423  -0.55829059  -0.73569616
  V4  -0.43755572  -0.74769697  -0.98528938
  V5  0.47241716  0.80726833  1.06379048
  V6  -0.34414495  -0.58807627  -0.77494671
  V7  0.38794522  0.66292234  0.87357629
  V8  0.38571051  0.65910366  0.86854417
  V9  0.42191277  0.72096623  0.95006453
  S10  0.00178777  0.00305494  0.00402570
  S11  -0.00446941  -0.00763735  -0.01006424
  S12  -0.01430213  -0.02443953  -0.03220558
  S13  0.01117354  0.01909339  0.02516061
  S14  0.00357553  0.00610988  0.00805139
  S15  -0.00357553  -0.00610988  -0.00805139
  S16  0.00089388  0.00152747  0.00201285
  S17  -0.00446941  -0.00763735  -0.01006424
  S18  0.00893883  0.01527471  0.02012849
  S19  -0.00849189  -0.01451097  -0.01912206
  S20  0.00893883  0.01527471  0.02012849
  S21  -0.00849189  -0.01451097  -0.01912206
  S22  0.00402247  0.00687362  0.00905782
  S23  -0.00357553  -0.00610988  -0.00805139
  S24  0.00983271  0.01680218  0.02214133
  S25  -0.01385519  -0.02367580  -0.03119915
