# generated using pymatgen
data_Mg(FeS2)4
_symmetry_space_group_name_H-M   'P 1'
_cell_length_a   6.46000493
_cell_length_b   11.31279037
_cell_length_c   7.23154071
_cell_angle_alpha   104.99317172
_cell_angle_beta   116.54229969
_cell_angle_gamma   90.11405139
_symmetry_Int_Tables_number   1
_chemical_formula_structural   Mg(FeS2)4
_chemical_formula_sum   'Mg2 Fe8 S16'
_cell_volume   452.44249302
_cell_formula_units_Z   2
loop_
 _symmetry_equiv_pos_site_id
 _symmetry_equiv_pos_as_xyz
  1  'x, y, z'
loop_
 _atom_site_type_symbol
 _atom_site_label
 _atom_site_symmetry_multiplicity
 _atom_site_fract_x
 _atom_site_fract_y
 _atom_site_fract_z
 _atom_site_occupancy
  Mg  Mg0  1  0.25356000  0.74652800  0.48738600  1
  Mg  Mg1  1  0.75551800  0.23401700  0.48746800  1
  Fe  Fe2  1  0.99269900  0.99642400  0.97895900  1
  Fe  Fe3  1  0.50932600  0.48657800  0.99083800  1
  Fe  Fe4  1  0.29158200  0.76227700  0.00859000  1
  Fe  Fe5  1  0.71678900  0.76590600  0.01326900  1
  Fe  Fe6  1  0.50365500  0.97540500  0.00955500  1
  Fe  Fe7  1  0.74718000  0.26048300  0.00129000  1
  Fe  Fe8  1  0.25416000  0.26194200  0.00496200  1
  Fe  Fe9  1  0.98201300  0.49474500  0.99808300  1
  S  S10  1  0.40648400  0.12779600  0.81766700  1
  S  S11  1  0.90911100  0.64689400  0.82901900  1
  S  S12  1  0.10674500  0.37388100  0.22120000  1
  S  S13  1  0.62403600  0.87710100  0.25497700  1
  S  S14  1  0.64286700  0.88086400  0.78976900  1
  S  S15  1  0.13322400  0.38383400  0.78333100  1
  S  S16  1  0.09672300  0.86496500  0.19083400  1
  S  S17  1  0.61323900  0.37220800  0.22500200  1
  S  S18  1  0.84509900  0.62342700  0.20093800  1
  S  S19  1  0.34921500  0.11560200  0.19026500  1
  S  S20  1  0.34290000  0.61465300  0.18541800  1
  S  S21  1  0.84179300  0.11379700  0.18622000  1
  S  S22  1  0.14600100  0.87836100  0.78562000  1
  S  S23  1  0.63672700  0.37379200  0.76691800  1
  S  S24  1  0.39941900  0.63063400  0.79303200  1
  S  S25  1  0.89994200  0.13788800  0.79939100  1
loop_
 _atom_site_moment_label
 _atom_site_moment_crystalaxis_x
 _atom_site_moment_crystalaxis_y
 _atom_site_moment_crystalaxis_z
  Mg0  0.00264898  0.00474949  0.00591887
  Mg1  0.00353198  0.00633266  0.00789183
  Fe2  0.33686252  0.60397706  0.75268352
  Fe3  0.67460804  1.20953728  1.50733999
  Fe4  -0.13686420  -0.24539042  -0.30580851
  Fe5  -0.12847575  -0.23035036  -0.28706540
  Fe6  -0.24812154  -0.44486908  -0.55440123
  Fe7  0.63619777  1.14066964  1.42151631
  Fe8  0.65429916  1.17312451  1.46196196
  Fe9  0.61103241  1.09554947  1.36528701
  S10  0.01765990  0.03166328  0.03945916
  S11  0.00706396  0.01266531  0.01578366
  S12  0.03355380  0.06016023  0.07497241
  S13  0.00397348  0.00712424  0.00887831
  S14  0.00529797  0.00949898  0.01183775
  S15  0.01103744  0.01978955  0.02466198
  S16  0.00706396  0.01266531  0.01578366
  S17  0.02648984  0.04749492  0.05918874
  S18  0.01147893  0.02058113  0.02564846
  S19  0.00838845  0.01504006  0.01874310
  S20  0.00088299  0.00158316  0.00197296
  S21  0.00662246  0.01187373  0.01479719
  S22  0.00485647  0.00870740  0.01085127
  S23  0.02295787  0.04116226  0.05129691
  S24  -0.00132449  -0.00237475  -0.00295944
  S25  0.00264898  0.00474949  0.00591887
