# generated using pymatgen
data_Ca(FeS2)2
_symmetry_space_group_name_H-M   'P 1'
_cell_length_a   6.83445517
_cell_length_b   7.03604120
_cell_length_c   7.05135597
_cell_angle_alpha   90.42722373
_cell_angle_beta   119.06421395
_cell_angle_gamma   60.99509467
_symmetry_Int_Tables_number   1
_chemical_formula_structural   Ca(FeS2)2
_chemical_formula_sum   'Ca2 Fe4 S8'
_cell_volume   247.40281406
_cell_formula_units_Z   2
loop_
 _symmetry_equiv_pos_site_id
 _symmetry_equiv_pos_as_xyz
  1  'x, y, z'
loop_
 _atom_site_type_symbol
 _atom_site_label
 _atom_site_symmetry_multiplicity
 _atom_site_fract_x
 _atom_site_fract_y
 _atom_site_fract_z
 _atom_site_occupancy
  Ca  Ca0  1  0.00000000  0.00000000  0.00000000  1
  Ca  Ca1  1  0.50000000  0.50000000  0.50000000  1
  Fe  Fe2  1  0.00000000  0.50000000  0.00000000  1
  Fe  Fe3  1  0.50000000  0.50000000  0.00000000  1
  Fe  Fe4  1  0.50000000  0.00000000  0.00000000  1
  Fe  Fe5  1  0.00000000  0.50000000  0.50000000  1
  S  S6  1  0.03262400  0.69636700  0.76085500  1
  S  S7  1  0.46759100  0.26082200  0.19630500  1
  S  S8  1  0.53240900  0.73917800  0.80369500  1
  S  S9  1  0.96737700  0.30363300  0.23914500  1
  S  S10  1  0.04055600  0.26248200  0.76259900  1
  S  S11  1  0.54050100  0.73734700  0.23732400  1
  S  S12  1  0.95944400  0.73751800  0.23740100  1
  S  S13  1  0.45949800  0.26265400  0.76267600  1
loop_
 _atom_site_moment_label
 _atom_site_moment_crystalaxis_x
 _atom_site_moment_crystalaxis_y
 _atom_site_moment_crystalaxis_z
  Ca0  -0.00194334  -0.00000202  -0.00199806
  Ca1  -0.00194334  -0.00000202  -0.00199806
  Fe2  -1.35547699  -0.00141109  -1.39364384
  Fe3  -1.41280541  -0.00147077  -1.45258648
  Fe4  0.88421796  0.00092050  0.90911533
  Fe5  0.89004797  0.00092657  0.91510950
  S6  0.00874501  0.00000910  0.00899125
  S7  0.00874501  0.00000910  0.00899125
  S8  0.00874501  0.00000910  0.00899125
  S9  0.00874501  0.00000910  0.00899125
  S10  0.00680168  0.00000708  0.00699319
  S11  0.00485834  0.00000506  0.00499514
  S12  0.00680168  0.00000708  0.00699319
  S13  0.00485834  0.00000506  0.00499514
