# generated using pymatgen
data_Ca(CrS2)2
_symmetry_space_group_name_H-M   'P 1'
_cell_length_a   7.24474251
_cell_length_b   7.27299466
_cell_length_c   7.27257902
_cell_angle_alpha   61.45503099
_cell_angle_beta   60.12574221
_cell_angle_gamma   60.12826006
_symmetry_Int_Tables_number   1
_chemical_formula_structural   Ca(CrS2)2
_chemical_formula_sum   'Ca2 Cr4 S8'
_cell_volume   274.35227052
_cell_formula_units_Z   2
loop_
 _symmetry_equiv_pos_site_id
 _symmetry_equiv_pos_as_xyz
  1  'x, y, z'
loop_
 _atom_site_type_symbol
 _atom_site_label
 _atom_site_symmetry_multiplicity
 _atom_site_fract_x
 _atom_site_fract_y
 _atom_site_fract_z
 _atom_site_occupancy
  Ca  Ca0  1  0.00000100  0.99999900  0.00000000  1
  Ca  Ca1  1  0.00000100  0.50000000  0.50000000  1
  Cr  Cr2  1  0.99999900  0.00000000  0.50000100  1
  Cr  Cr3  1  0.50000000  0.00000000  0.00000000  1
  Cr  Cr4  1  0.49999900  0.00000000  0.50000000  1
  Cr  Cr5  1  0.50000000  0.50000000  0.50000000  1
  S  S6  1  0.73492100  0.23499800  0.29515900  1
  S  S7  1  0.73008400  0.23897800  0.73898900  1
  S  S8  1  0.73491900  0.79516100  0.73500400  1
  S  S9  1  0.70805300  0.76102100  0.26101100  1
  S  S10  1  0.26508200  0.20483800  0.26499600  1
  S  S11  1  0.26991400  0.76102200  0.26101100  1
  S  S12  1  0.29194800  0.23898000  0.73898800  1
  S  S13  1  0.26507900  0.76500300  0.70484000  1
loop_
 _atom_site_moment_label
 _atom_site_moment_crystalaxis_x
 _atom_site_moment_crystalaxis_y
 _atom_site_moment_crystalaxis_z
  Ca0  -0.00000210  0.00000105  -0.00099945
  Ca1  -0.00000210  0.00000105  -0.00099945
  Cr2  0.00613896  -0.00306513  2.91640244
  Cr3  0.00617052  -0.00308089  2.93139423
  Cr4  0.00613265  -0.00306198  2.91340409
  Cr5  0.00617472  -0.00308299  2.93339314
  S6  -0.00013885  0.00006933  -0.06596387
  S7  -0.00014727  0.00007353  -0.06996168
  S8  -0.00013885  0.00006933  -0.06596387
  S9  -0.00014727  0.00007353  -0.06996168
  S10  -0.00013885  0.00006933  -0.06596387
  S11  -0.00014727  0.00007353  -0.06996168
  S12  -0.00014727  0.00007353  -0.06996168
  S13  -0.00013885  0.00006933  -0.06596387
