# generated using pymatgen
data_Ca(FeS2)2
_symmetry_space_group_name_H-M   'P 1'
_cell_length_a   6.90737476
_cell_length_b   7.35080721
_cell_length_c   6.91245178
_cell_angle_alpha   61.73214471
_cell_angle_beta   89.82902908
_cell_angle_gamma   62.06723850
_symmetry_Int_Tables_number   1
_chemical_formula_structural   Ca(FeS2)2
_chemical_formula_sum   'Ca2 Fe4 S8'
_cell_volume   262.08280471
_cell_formula_units_Z   2
loop_
 _symmetry_equiv_pos_site_id
 _symmetry_equiv_pos_as_xyz
  1  'x, y, z'
loop_
 _atom_site_type_symbol
 _atom_site_label
 _atom_site_symmetry_multiplicity
 _atom_site_fract_x
 _atom_site_fract_y
 _atom_site_fract_z
 _atom_site_occupancy
  Ca  Ca0  1  0.50055800  0.99967500  0.50086500  1
  Ca  Ca1  1  0.24942700  0.50031300  0.74913300  1
  Fe  Fe2  1  0.87500200  0.25000300  0.62500500  1
  Fe  Fe3  1  0.87500200  0.25000100  0.12500500  1
  Fe  Fe4  1  0.37500500  0.74999700  0.12499700  1
  Fe  Fe5  1  0.87500700  0.74999900  0.12500300  1
  S  S6  1  0.08787600  0.82367900  0.30760000  1
  S  S7  1  0.68888500  0.17665000  0.91261200  1
  S  S8  1  0.13132600  0.17655500  0.91151500  1
  S  S9  1  0.66213400  0.67633500  0.94238000  1
  S  S10  1  0.66084700  0.67669900  0.38419300  1
  S  S11  1  0.06109700  0.32339100  0.33737400  1
  S  S12  1  0.08916000  0.82327000  0.86580100  1
  S  S13  1  0.61867500  0.32343400  0.33851800  1
loop_
 _atom_site_moment_label
 _atom_site_moment_crystalaxis_x
 _atom_site_moment_crystalaxis_y
 _atom_site_moment_crystalaxis_z
  Fe2  0.00070982  0.00270827  -1.32428172
  Fe3  0.00071036  0.00271031  -1.32528269
  Fe4  -0.00070768  -0.00270008  1.32027784
  Fe5  -0.00070124  -0.00267551  1.30826622
  S6  -0.00000322  -0.00001228  0.00600581
  S7  0.00000107  0.00000409  -0.00200194
  S8  0.00000322  0.00001228  -0.00600581
  S9  -0.00000322  -0.00001228  0.00600581
  S10  -0.00000107  -0.00000409  0.00200194
  S11  0.00000107  0.00000409  -0.00200194
  S12  -0.00000107  -0.00000409  0.00200194
  S13  0.00000322  0.00001228  -0.00600581
