# generated using pymatgen
data_Ca(NiS2)2
_symmetry_space_group_name_H-M   'P 1'
_cell_length_a   7.01246002
_cell_length_b   7.45540152
_cell_length_c   7.01104601
_cell_angle_alpha   118.04095426
_cell_angle_beta   90.00082557
_cell_angle_gamma   118.06035282
_symmetry_Int_Tables_number   1
_chemical_formula_structural   Ca(NiS2)2
_chemical_formula_sum   'Ca2 Ni4 S8'
_cell_volume   273.73622453
_cell_formula_units_Z   2
loop_
 _symmetry_equiv_pos_site_id
 _symmetry_equiv_pos_as_xyz
  1  'x, y, z'
loop_
 _atom_site_type_symbol
 _atom_site_label
 _atom_site_symmetry_multiplicity
 _atom_site_fract_x
 _atom_site_fract_y
 _atom_site_fract_z
 _atom_site_occupancy
  Ca  Ca0  1  0.49991400  0.99999600  0.50012200  1
  Ca  Ca1  1  0.75009200  0.50001300  0.24987800  1
  Ni  Ni2  1  0.12502500  0.74998000  0.87501800  1
  Ni  Ni3  1  0.12503300  0.24999500  0.87494900  1
  Ni  Ni4  1  0.62495800  0.75000900  0.87506000  1
  Ni  Ni5  1  0.12501200  0.25000100  0.37495300  1
  S  S6  1  0.89972500  0.79938200  0.10861400  1
  S  S7  1  0.89141400  0.20059000  0.10028400  1
  S  S8  1  0.30922000  0.20076300  0.10038900  1
  S  S9  1  0.35031800  0.70065200  0.64141000  1
  S  S10  1  0.35032900  0.70073700  0.05920800  1
  S  S11  1  0.35854900  0.29938200  0.64968200  1
  S  S12  1  0.89963500  0.79926700  0.69081000  1
  S  S13  1  0.94077600  0.29923200  0.64962300  1
loop_
 _atom_site_moment_label
 _atom_site_moment_crystalaxis_x
 _atom_site_moment_crystalaxis_y
 _atom_site_moment_crystalaxis_z
  Ca0  -0.00000119  -0.00000319  0.04299850
  Ca1  -0.00000119  -0.00000319  0.04299850
  Ni2  -0.00001707  -0.00004587  0.61897844
  Ni3  -0.00001710  -0.00004594  0.61997840
  Ni4  -0.00001710  -0.00004594  0.61997840
  Ni5  -0.00001715  -0.00004609  0.62197833
  S6  -0.00000290  -0.00000778  0.10499634
  S7  -0.00000290  -0.00000778  0.10499634
  S8  -0.00000290  -0.00000778  0.10499634
  S9  -0.00000290  -0.00000778  0.10499634
  S10  -0.00000290  -0.00000778  0.10499634
  S11  -0.00000290  -0.00000778  0.10499634
  S12  -0.00000290  -0.00000778  0.10499634
  S13  -0.00000290  -0.00000778  0.10499634
