# generated using pymatgen
data_Mg(MnS2)4
_symmetry_space_group_name_H-M   'P 1'
_cell_length_a   6.78172918
_cell_length_b   12.98924290
_cell_length_c   6.77894260
_cell_angle_alpha   105.13928822
_cell_angle_beta   119.99833776
_cell_angle_gamma   74.87026269
_symmetry_Int_Tables_number   1
_chemical_formula_structural   Mg(MnS2)4
_chemical_formula_sum   'Mg2 Mn8 S16'
_cell_volume   493.09715524
_cell_formula_units_Z   2
loop_
 _symmetry_equiv_pos_site_id
 _symmetry_equiv_pos_as_xyz
  1  'x, y, z'
loop_
 _atom_site_type_symbol
 _atom_site_label
 _atom_site_symmetry_multiplicity
 _atom_site_fract_x
 _atom_site_fract_y
 _atom_site_fract_z
 _atom_site_occupancy
  Mg  Mg0  1  0.24992300  0.24986800  0.74986100  1
  Mg  Mg1  1  0.75007700  0.75013200  0.25013900  1
  Mn  Mn2  1  0.50000100  0.00000000  0.50000000  1
  Mn  Mn3  1  0.00000000  0.50000000  0.00000100  1
  Mn  Mn4  1  0.00000000  0.00000000  0.50000000  1
  Mn  Mn5  1  0.50000000  0.50000000  0.00000000  1
  Mn  Mn6  1  0.50000100  0.00000000  0.00000000  1
  Mn  Mn7  1  0.00000000  0.50000000  0.50000000  1
  Mn  Mn8  1  0.50000000  0.49999900  0.50000000  1
  Mn  Mn9  1  0.00000100  0.00000000  0.00000000  1
  S  S10  1  0.86803800  0.39588300  0.13190800  1
  S  S11  1  0.36823200  0.89515900  0.63163900  1
  S  S12  1  0.63176900  0.10484100  0.36836200  1
  S  S13  1  0.13196100  0.60411700  0.86809300  1
  S  S14  1  0.36402300  0.39213400  0.63582500  1
  S  S15  1  0.86446100  0.89196600  0.13544600  1
  S  S16  1  0.13537600  0.10795100  0.37870800  1
  S  S17  1  0.63594600  0.60785400  0.87965700  1
  S  S18  1  0.13554000  0.10803400  0.86455500  1
  S  S19  1  0.63597700  0.60786600  0.36417500  1
  S  S20  1  0.62051000  0.10817200  0.86439200  1
  S  S21  1  0.12027700  0.60788400  0.36411400  1
  S  S22  1  0.87972400  0.39211500  0.63588700  1
  S  S23  1  0.37949100  0.89182700  0.13560800  1
  S  S24  1  0.36405400  0.39214500  0.12034400  1
  S  S25  1  0.86462500  0.89204800  0.62129300  1
loop_
 _atom_site_moment_label
 _atom_site_moment_crystalaxis_x
 _atom_site_moment_crystalaxis_y
 _atom_site_moment_crystalaxis_z
  Mg0  0.00510750  0.00974311  0.00509665
  Mg1  0.00510750  0.00974311  0.00509665
  Mn2  1.25366010  2.39149061  1.25099616
  Mn3  1.22672962  2.34011785  1.22412291
  Mn4  1.25319578  2.39060487  1.25053283
  Mn5  1.23044417  2.34720375  1.22782957
  Mn6  1.25319578  2.39060487  1.25053283
  Mn7  1.22765826  2.34188932  1.22504958
  Mn8  -1.71519274  -3.27191345  -1.71154808
  Mn9  1.59354128  3.03985028  1.59015512
  S10  -0.01346524  -0.02568638  -0.01343663
  S11  -0.01485819  -0.02834359  -0.01482662
  S12  -0.01485819  -0.02834359  -0.01482662
  S13  -0.01346524  -0.02568638  -0.01343663
  S14  -0.01392956  -0.02657212  -0.01389996
  S15  -0.01253660  -0.02391491  -0.01250996
  S16  -0.01253660  -0.02391491  -0.01250996
  S17  -0.01392956  -0.02657212  -0.01389996
  S18  -0.01253660  -0.02391491  -0.01250996
  S19  -0.01392956  -0.02657212  -0.01389996
  S20  -0.01300092  -0.02480064  -0.01297329
  S21  -0.01392956  -0.02657212  -0.01389996
  S22  -0.01392956  -0.02657212  -0.01389996
  S23  -0.01300092  -0.02480064  -0.01297329
  S24  -0.01392956  -0.02657212  -0.01389996
  S25  -0.01253660  -0.02391491  -0.01250996
