# generated using pymatgen
data_Ca(NiS2)4
_symmetry_space_group_name_H-M   'P 1'
_cell_length_a   6.76273062
_cell_length_b   7.67541347
_cell_length_c   11.79828182
_cell_angle_alpha   105.66830517
_cell_angle_beta   89.97917752
_cell_angle_gamma   115.94862057
_symmetry_Int_Tables_number   1
_chemical_formula_structural   Ca(NiS2)4
_chemical_formula_sum   'Ca2 Ni8 S16'
_cell_volume   525.27759591
_cell_formula_units_Z   2
loop_
 _symmetry_equiv_pos_site_id
 _symmetry_equiv_pos_as_xyz
  1  'x, y, z'
loop_
 _atom_site_type_symbol
 _atom_site_label
 _atom_site_symmetry_multiplicity
 _atom_site_fract_x
 _atom_site_fract_y
 _atom_site_fract_z
 _atom_site_occupancy
  Ca  Ca0  1  0.25013500  0.50008300  0.75016300  1
  Ca  Ca1  1  0.75001000  0.49995900  0.25010400  1
  Ni  Ni2  1  0.50013900  0.99975900  0.50016100  1
  Ni  Ni3  1  0.99993800  0.00017300  0.00014900  1
  Ni  Ni4  1  0.00020300  0.99991400  0.49993900  1
  Ni  Ni5  1  0.49990600  0.00014700  0.99998400  1
  Ni  Ni6  1  0.74980200  0.99989300  0.24999400  1
  Ni  Ni7  1  0.25012400  0.00013700  0.74992600  1
  Ni  Ni8  1  0.24979200  0.99980600  0.24996200  1
  Ni  Ni9  1  0.75004400  0.00009900  0.74988800  1
  S  S10  1  0.08715900  0.17611100  0.36387800  1
  S  S11  1  0.58745500  0.17653900  0.86389000  1
  S  S12  1  0.41249500  0.82360000  0.13599600  1
  S  S13  1  0.91285100  0.82380600  0.63605600  1
  S  S14  1  0.09231400  0.18655400  0.85953200  1
  S  S15  1  0.59191400  0.18604600  0.35959800  1
  S  S16  1  0.16391200  0.82038600  0.88420200  1
  S  S17  1  0.66408800  0.82020800  0.38427200  1
  S  S18  1  0.40776400  0.81354300  0.64044900  1
  S  S19  1  0.90738700  0.81328700  0.14036000  1
  S  S20  1  0.65668000  0.81949700  0.88374000  1
  S  S21  1  0.15687300  0.81912100  0.38377200  1
  S  S22  1  0.84363900  0.18071500  0.61616400  1
  S  S23  1  0.34328700  0.18085900  0.11631600  1
  S  S24  1  0.33625900  0.17981700  0.61567800  1
  S  S25  1  0.83583600  0.17994000  0.11583400  1
loop_
 _atom_site_moment_label
 _atom_site_moment_crystalaxis_x
 _atom_site_moment_crystalaxis_y
 _atom_site_moment_crystalaxis_z
  Ni2  -0.41130689  -0.93712392  -0.72861998
  Ni3  0.41218763  0.93913061  0.73018020
  Ni4  -0.00396334  -0.00903010  -0.00702096
  Ni5  0.00352297  0.00802676  0.00624086
  Ni6  -0.00044037  -0.00100334  -0.00078011
  Ni8  -0.00044037  -0.00100334  -0.00078011
  S10  0.00132111  0.00301003  0.00234032
  S11  -0.00132111  -0.00301003  -0.00234032
  S12  -0.00132111  -0.00301003  -0.00234032
  S13  0.00132111  0.00301003  0.00234032
  S14  0.03611045  0.08227426  0.06396878
  S15  -0.03611045  -0.08227426  -0.06396878
  S16  0.02201857  0.05016723  0.03900535
  S17  -0.02245894  -0.05117058  -0.03978546
  S18  -0.03611045  -0.08227426  -0.06396878
  S19  0.03567008  0.08127092  0.06318867
  S20  0.02245894  0.05117058  0.03978546
  S21  -0.02289931  -0.05217392  -0.04056557
  S22  -0.02289931  -0.05217392  -0.04056557
  S23  0.02245894  0.05117058  0.03978546
  S24  -0.02245894  -0.05117058  -0.03978546
  S25  0.02157820  0.04916389  0.03822525
