# generated using pymatgen
data_Ca(VS2)4
_symmetry_space_group_name_H-M   'P 1'
_cell_length_a   6.96567832
_cell_length_b   12.43097517
_cell_length_c   6.89476747
_cell_angle_alpha   92.99963067
_cell_angle_beta   63.37672673
_cell_angle_gamma   74.87666631
_symmetry_Int_Tables_number   1
_chemical_formula_structural   Ca(VS2)4
_chemical_formula_sum   'Ca2 V8 S16'
_cell_volume   505.22929629
_cell_formula_units_Z   2
loop_
 _symmetry_equiv_pos_site_id
 _symmetry_equiv_pos_as_xyz
  1  'x, y, z'
loop_
 _atom_site_type_symbol
 _atom_site_label
 _atom_site_symmetry_multiplicity
 _atom_site_fract_x
 _atom_site_fract_y
 _atom_site_fract_z
 _atom_site_occupancy
  Ca  Ca0  1  0.00789100  0.01004000  0.03419800  1
  Ca  Ca1  1  0.00956600  0.50625500  0.52856400  1
  V  V2  1  0.51809700  0.25990500  0.77619200  1
  V  V3  1  0.51849700  0.75922500  0.25878300  1
  V  V4  1  0.46048900  0.50128900  0.01841400  1
  V  V5  1  0.02500500  0.72615900  0.21210900  1
  V  V6  1  0.52243600  0.26973600  0.21201300  1
  V  V7  1  0.48640500  0.99550800  0.50160900  1
  V  V8  1  0.03807600  0.21946400  0.67563900  1
  V  V9  1  0.54161900  0.77502900  0.72746800  1
  S  S10  1  0.71723600  0.38464000  0.14286900  1
  S  S11  1  0.75674100  0.88320000  0.61101800  1
  S  S12  1  0.25169500  0.10742300  0.35432100  1
  S  S13  1  0.22023200  0.60775100  0.89201800  1
  S  S14  1  0.24905200  0.36784300  0.12064500  1
  S  S15  1  0.27193700  0.86784700  0.62128000  1
  S  S16  1  0.74773200  0.13487200  0.87585000  1
  S  S17  1  0.72820300  0.63871300  0.39617600  1
  S  S18  1  0.74042100  0.36961700  0.65216800  1
  S  S19  1  0.75139400  0.86816700  0.14048600  1
  S  S20  1  0.26588600  0.34224400  0.61933800  1
  S  S21  1  0.27235000  0.84691200  0.11677800  1
  S  S22  1  0.26661500  0.13787700  0.83707000  1
  S  S23  1  0.26408200  0.63828400  0.36039600  1
  S  S24  1  0.68171400  0.14385500  0.40757900  1
  S  S25  1  0.68662800  0.63814600  0.90702200  1
loop_
 _atom_site_moment_label
 _atom_site_moment_crystalaxis_x
 _atom_site_moment_crystalaxis_y
 _atom_site_moment_crystalaxis_z
  Ca0  -0.00001576  -0.00087736  -0.00051245
  Ca1  -0.00007880  -0.00438678  -0.00256223
  V2  0.00441261  0.24565945  0.14348505
  V3  0.02021920  1.12564668  0.65746898
  V4  -0.02625502  -1.46167370  -0.85373602
  V5  -0.01993553  -1.10985428  -0.64824494
  V6  -0.00557880  -0.31058373  -0.18140609
  V7  0.02605015  1.45026809  0.84707422
  V8  0.01679943  0.93526061  0.54626807
  V9  0.01590115  0.88525136  0.51705861
  S10  0.00044126  0.02456594  0.01434850
  S11  -0.00072493  -0.04035834  -0.02357254
  S12  -0.00127650  -0.07106577  -0.04150817
  S13  0.00170201  0.09475436  0.05534423
  S14  0.00018911  0.01052826  0.00614936
  S15  -0.00085100  -0.04737718  -0.02767212
  S16  -0.00020487  -0.01140562  -0.00666181
  S17  -0.00036246  -0.02017917  -0.01178627
  S18  -0.00003152  -0.00175471  -0.00102489
  S19  -0.00050430  -0.02807537  -0.01639829
  S20  -0.00033095  -0.01842446  -0.01076138
  S21  -0.00033095  -0.01842446  -0.01076138
  S22  -0.00069341  -0.03860363  -0.02254765
  S23  0.00036246  0.02017917  0.01178627
  S24  -0.00036246  -0.02017917  -0.01178627
  S25  -0.00026791  -0.01491504  -0.00871159
