# generated using pymatgen
data_Mg(CrS2)4
_symmetry_space_group_name_H-M   'P 1'
_cell_length_a   6.92660028
_cell_length_b   11.99925617
_cell_length_c   6.92629589
_cell_angle_alpha   106.75554334
_cell_angle_beta   59.97555002
_cell_angle_gamma   106.75942154
_symmetry_Int_Tables_number   1
_chemical_formula_structural   Mg(CrS2)4
_chemical_formula_sum   'Mg2 Cr8 S16'
_cell_volume   469.99794870
_cell_formula_units_Z   2
loop_
 _symmetry_equiv_pos_site_id
 _symmetry_equiv_pos_as_xyz
  1  'x, y, z'
loop_
 _atom_site_type_symbol
 _atom_site_label
 _atom_site_symmetry_multiplicity
 _atom_site_fract_x
 _atom_site_fract_y
 _atom_site_fract_z
 _atom_site_occupancy
  Mg  Mg0  1  0.00230300  0.00678000  0.00223700  1
  Mg  Mg1  1  0.49763100  0.49320700  0.49773500  1
  Cr  Cr2  1  0.48978200  0.99431800  0.48971800  1
  Cr  Cr3  1  0.01020700  0.50571200  0.01028500  1
  Cr  Cr4  1  0.01569600  0.99432000  0.48913400  1
  Cr  Cr5  1  0.48461600  0.50566800  0.01062600  1
  Cr  Cr6  1  0.48927300  0.99424500  0.01539200  1
  Cr  Cr7  1  0.01046700  0.50576000  0.48488000  1
  Cr  Cr8  1  0.24999800  0.74996100  0.24999600  1
  Cr  Cr9  1  0.75001600  0.24998200  0.74999700  1
  S  S10  1  0.37314300  0.11920500  0.37305100  1
  S  S11  1  0.86850000  0.60566900  0.86856000  1
  S  S12  1  0.12684700  0.38089500  0.12702200  1
  S  S13  1  0.63162200  0.89431500  0.63144700  1
  S  S14  1  0.10296600  0.38228700  0.63963300  1
  S  S15  1  0.61427100  0.87277200  0.12933600  1
  S  S16  1  0.63972200  0.38246400  0.63975700  1
  S  S17  1  0.12908500  0.87261800  0.12908800  1
  S  S18  1  0.63957700  0.38224000  0.10303300  1
  S  S19  1  0.12935400  0.87277000  0.61422600  1
  S  S20  1  0.86027400  0.11750000  0.86013600  1
  S  S21  1  0.37075100  0.62729900  0.37085400  1
  S  S22  1  0.86055100  0.11779600  0.39693700  1
  S  S23  1  0.37060800  0.62721500  0.88581000  1
  S  S24  1  0.39696500  0.11780000  0.86046300  1
  S  S25  1  0.88577900  0.62721000  0.37065000  1
loop_
 _atom_site_moment_label
 _atom_site_moment_crystalaxis_x
 _atom_site_moment_crystalaxis_y
 _atom_site_moment_crystalaxis_z
  Mg0  0.00449106  0.00780381  0.00449066
  Mg1  0.00449106  0.00780381  0.00449066
  Cr2  1.26697804  2.20154047  1.26686618
  Cr3  1.26647904  2.20067338  1.26636722
  Cr4  1.26298599  2.19460375  1.26287448
  Cr5  1.26049096  2.19026830  1.26037967
  Cr6  1.26897407  2.20500883  1.26886203
  Cr7  1.27246712  2.21107845  1.27235477
  Cr8  -1.26148897  -2.19200248  -1.26137759
  Cr9  1.35929429  2.36195204  1.35917427
  S10  -0.08283511  -0.14393687  -0.08282780
  S11  -0.11327452  -0.19682934  -0.11326452
  S12  -0.08333412  -0.14480396  -0.08332676
  S13  -0.11327452  -0.19682934  -0.11326452
  S14  -0.05988081  -0.10405075  -0.05987552
  S15  -0.03143742  -0.05462664  -0.03143465
  S16  -0.05988081  -0.10405075  -0.05987552
  S17  -0.03143742  -0.05462664  -0.03143465
  S18  -0.05988081  -0.10405075  -0.05987552
  S19  -0.03193643  -0.05549373  -0.03193361
  S20  -0.05988081  -0.10405075  -0.05987552
  S21  -0.03143742  -0.05462664  -0.03143465
  S22  -0.05988081  -0.10405075  -0.05987552
  S23  -0.03193643  -0.05549373  -0.03193361
  S24  -0.05988081  -0.10405075  -0.05987552
  S25  -0.03143742  -0.05462664  -0.03143465
