# generated using pymatgen
data_Mg(NiS2)4
_symmetry_space_group_name_H-M   'P 1'
_cell_length_a   6.86950172
_cell_length_b   9.76906806
_cell_length_c   6.83849366
_cell_angle_alpha   89.99509114
_cell_angle_beta   90.00158227
_cell_angle_gamma   89.23372719
_symmetry_Int_Tables_number   1
_chemical_formula_structural   Mg(NiS2)4
_chemical_formula_sum   'Mg2 Ni8 S16'
_cell_volume   458.88089659
_cell_formula_units_Z   2
loop_
 _symmetry_equiv_pos_site_id
 _symmetry_equiv_pos_as_xyz
  1  'x, y, z'
loop_
 _atom_site_type_symbol
 _atom_site_label
 _atom_site_symmetry_multiplicity
 _atom_site_fract_x
 _atom_site_fract_y
 _atom_site_fract_z
 _atom_site_occupancy
  Mg  Mg0  1  0.00003200  0.99998900  0.99990600  1
  Mg  Mg1  1  0.50001400  0.49996600  0.49992500  1
  Ni  Ni2  1  0.50005500  0.99994700  0.49988600  1
  Ni  Ni3  1  0.99995500  0.50006200  0.99993100  1
  Ni  Ni4  1  0.74990800  0.24984700  0.75012200  1
  Ni  Ni5  1  0.25001800  0.74996600  0.24999300  1
  Ni  Ni6  1  0.74990900  0.25011700  0.25004700  1
  Ni  Ni7  1  0.25002500  0.75004700  0.75008400  1
  Ni  Ni8  1  0.50006600  0.50003100  0.99994100  1
  Ni  Ni9  1  0.00004800  0.00005200  0.49995800  1
  S  S10  1  0.47019300  0.73428900  0.00005000  1
  S  S11  1  0.96999600  0.23425700  0.50010700  1
  S  S12  1  0.52975800  0.26578200  0.00001200  1
  S  S13  1  0.02987900  0.76578900  0.50008700  1
  S  S14  1  0.25523000  0.51653500  0.22448300  1
  S  S15  1  0.75531300  0.01639500  0.72459900  1
  S  S16  1  0.25522100  0.51663400  0.77540600  1
  S  S17  1  0.75530400  0.01668500  0.27529500  1
  S  S18  1  0.02998700  0.74343900  0.00005400  1
  S  S19  1  0.52995500  0.24341200  0.50012200  1
  S  S20  1  0.74483400  0.48353400  0.22450700  1
  S  S21  1  0.24476900  0.98351100  0.72463900  1
  S  S22  1  0.96990700  0.25654300  0.00008200  1
  S  S23  1  0.47002400  0.75652000  0.50012700  1
  S  S24  1  0.74483700  0.48325300  0.77534600  1
  S  S25  1  0.24476400  0.98339500  0.27528700  1
loop_
 _atom_site_moment_label
 _atom_site_moment_crystalaxis_x
 _atom_site_moment_crystalaxis_y
 _atom_site_moment_crystalaxis_z
  Mg0  -0.00395746  -0.00563047  -0.00400466
  Mg1  0.00395746  0.00563047  0.00400466
  Ni2  -0.49220965  -0.70028974  -0.49807956
  Ni3  0.49122028  0.69888213  0.49707840
  Ni8  0.00395746  0.00563047  0.00400466
  Ni9  -0.00395746  -0.00563047  -0.00400466
  S10  0.00296810  0.00422285  0.00300349
  S11  -0.00296810  -0.00422285  -0.00300349
  S12  0.00296810  0.00422285  0.00300349
  S13  -0.00296810  -0.00422285  -0.00300349
  S14  0.02869162  0.04082091  0.02903378
  S15  -0.02869162  -0.04082091  -0.02903378
  S16  0.02869162  0.04082091  0.02903378
  S17  -0.02918630  -0.04152472  -0.02953437
  S18  0.03660655  0.05208185  0.03704310
  S19  -0.03660655  -0.05208185  -0.03704310
  S20  0.02869162  0.04082091  0.02903378
  S21  -0.02869162  -0.04082091  -0.02903378
  S22  0.03660655  0.05208185  0.03704310
  S23  -0.03660655  -0.05208185  -0.03704310
  S24  0.02869162  0.04082091  0.02903378
  S25  -0.02869162  -0.04082091  -0.02903378
