# generated using pymatgen
data_Ca(FeS2)4
_symmetry_space_group_name_H-M   'P 1'
_cell_length_a   6.93831700
_cell_length_b   11.94970844
_cell_length_c   6.92877634
_cell_angle_alpha   89.06875857
_cell_angle_beta   59.06984023
_cell_angle_gamma   72.68979558
_symmetry_Int_Tables_number   1
_chemical_formula_structural   Ca(FeS2)4
_chemical_formula_sum   'Ca2 Fe8 S16'
_cell_volume   463.86000590
_cell_formula_units_Z   2
loop_
 _symmetry_equiv_pos_site_id
 _symmetry_equiv_pos_as_xyz
  1  'x, y, z'
loop_
 _atom_site_type_symbol
 _atom_site_label
 _atom_site_symmetry_multiplicity
 _atom_site_fract_x
 _atom_site_fract_y
 _atom_site_fract_z
 _atom_site_occupancy
  Ca  Ca0  1  0.00506700  0.00122200  0.00616700  1
  Ca  Ca1  1  0.00627300  0.49912400  0.50564800  1
  Fe  Fe2  1  0.48330700  0.51508400  0.99855800  1
  Fe  Fe3  1  0.01369800  0.74282300  0.23908000  1
  Fe  Fe4  1  0.49618200  0.74289300  0.75649400  1
  Fe  Fe5  1  0.50684500  0.25105600  0.75781400  1
  Fe  Fe6  1  0.50486200  0.75085600  0.25570600  1
  Fe  Fe7  1  0.49168100  0.00843400  0.49991700  1
  Fe  Fe8  1  0.00078000  0.24593000  0.74647500  1
  Fe  Fe9  1  0.50037700  0.24576600  0.24669100  1
  S  S10  1  0.72558300  0.36918100  0.09474500  1
  S  S11  1  0.72888700  0.86690800  0.59600200  1
  S  S12  1  0.25608100  0.13030200  0.38663400  1
  S  S13  1  0.25265300  0.62934800  0.88170900  1
  S  S14  1  0.29605300  0.36850900  0.09652600  1
  S  S15  1  0.30009300  0.86738900  0.59685400  1
  S  S16  1  0.73496600  0.14008300  0.87508100  1
  S  S17  1  0.73501200  0.64280400  0.37795200  1
  S  S18  1  0.72805000  0.36851700  0.66441000  1
  S  S19  1  0.72949500  0.86748500  0.16747200  1
  S  S20  1  0.27754900  0.34497500  0.62227600  1
  S  S21  1  0.27537900  0.84805900  0.12325500  1
  S  S22  1  0.27046300  0.13933500  0.84178300  1
  S  S23  1  0.27236000  0.63715200  0.34343100  1
  S  S24  1  0.70226700  0.13944600  0.40970000  1
  S  S25  1  0.70603800  0.63732100  0.90962100  1
loop_
 _atom_site_moment_label
 _atom_site_moment_crystalaxis_x
 _atom_site_moment_crystalaxis_y
 _atom_site_moment_crystalaxis_z
  Ca0  0.00004687  -0.00519447  -0.00296684
  Ca1  0.00001562  -0.00173149  -0.00098895
  Fe2  0.01082741  -1.19992310  -0.68534092
  Fe3  0.01213982  -1.34536833  -0.76841254
  Fe4  0.01210076  -1.34103960  -0.76594017
  Fe5  -0.00810103  0.89777796  0.51276950
  Fe6  -0.00949937  1.05274639  0.60128034
  Fe7  -0.01121019  1.24234463  0.70957014
  Fe8  -0.01235856  1.36960920  0.78225782
  Fe9  -0.01224919  1.35748876  0.77533518
  S10  -0.00039060  0.04328727  0.02472370
  S11  -0.00021874  0.02424087  0.01384527
  S12  -0.00039060  0.04328727  0.02472370
  S13  0.00009374  -0.01038894  -0.00593369
  S14  -0.00020311  0.02250938  0.01285632
  S15  -0.00017186  0.01904640  0.01087843
  S17  -0.00023436  0.02597236  0.01483422
  S18  -0.00019530  0.02164363  0.01236185
  S19  -0.00017968  0.01991214  0.01137290
  S20  -0.00001562  0.00173149  0.00098895
  S21  -0.00007031  0.00779171  0.00445027
  S22  -0.00006250  0.00692596  0.00395579
  S23  -0.00022655  0.02510662  0.01433975
  S24  -0.00005468  0.00606022  0.00346132
  S25  -0.00022655  0.02510662  0.01433975
