# generated using pymatgen
data_Ca(MnS2)4
_symmetry_space_group_name_H-M   'P 1'
_cell_length_a   6.75890998
_cell_length_b   6.75761195
_cell_length_c   14.00360032
_cell_angle_alpha   103.89542980
_cell_angle_beta   76.09022801
_cell_angle_gamma   119.97971296
_symmetry_Int_Tables_number   1
_chemical_formula_structural   Ca(MnS2)4
_chemical_formula_sum   'Ca2 Mn8 S16'
_cell_volume   532.27024260
_cell_formula_units_Z   2
loop_
 _symmetry_equiv_pos_site_id
 _symmetry_equiv_pos_as_xyz
  1  'x, y, z'
loop_
 _atom_site_type_symbol
 _atom_site_label
 _atom_site_symmetry_multiplicity
 _atom_site_fract_x
 _atom_site_fract_y
 _atom_site_fract_z
 _atom_site_occupancy
  Ca  Ca0  1  0.25017900  0.74966200  0.24913800  1
  Ca  Ca1  1  0.74982000  0.25033800  0.75086200  1
  Mn  Mn2  1  0.00000100  0.00000000  0.00000000  1
  Mn  Mn3  1  0.49999900  0.50000000  0.50000000  1
  Mn  Mn4  1  0.50000000  0.00000000  0.50000000  1
  Mn  Mn5  1  0.00000000  0.50000000  0.50000000  1
  Mn  Mn6  1  0.00000000  0.00000000  0.50000000  1
  Mn  Mn7  1  0.00000100  0.50000000  0.00000000  1
  Mn  Mn8  1  0.50000100  0.00000000  0.00000000  1
  Mn  Mn9  1  0.50000100  0.50000000  0.00000000  1
  S  S10  1  0.63469200  0.36516900  0.09652600  1
  S  S11  1  0.13484800  0.86520200  0.59624600  1
  S  S12  1  0.86515000  0.13479700  0.40375300  1
  S  S13  1  0.36530900  0.63483200  0.90347400  1
  S  S14  1  0.63672600  0.86618300  0.09655100  1
  S  S15  1  0.12746500  0.36258600  0.59854800  1
  S  S16  1  0.36293900  0.63701300  0.40160000  1
  S  S17  1  0.86639500  0.13363900  0.90348300  1
  S  S18  1  0.87253300  0.63741500  0.40145300  1
  S  S19  1  0.36327600  0.13381700  0.90344900  1
  S  S20  1  0.36266200  0.12732200  0.40135800  1
  S  S21  1  0.86626000  0.63682900  0.90342300  1
  S  S22  1  0.13374100  0.36317200  0.09657600  1
  S  S23  1  0.63733700  0.87267500  0.59864100  1
  S  S24  1  0.13360600  0.86636100  0.09651700  1
  S  S25  1  0.63706000  0.36298700  0.59840100  1
loop_
 _atom_site_moment_label
 _atom_site_moment_crystalaxis_x
 _atom_site_moment_crystalaxis_y
 _atom_site_moment_crystalaxis_z
  Ca0  0.00043321  0.00043343  0.00090112
  Ca1  0.00043321  0.00043343  0.00090112
  Mn2  0.98598820  0.98647742  2.05095667
  Mn3  1.50887386  1.50962252  3.13861252
  Mn4  -1.10208875  -1.10263557  -2.29245772
  Mn5  -1.10165554  -1.10220214  -2.29155660
  Mn6  -1.10425480  -1.10480270  -2.29696334
  Mn7  1.12201645  1.12257316  2.33390939
  Mn8  1.11855077  1.11910576  2.32670041
  Mn9  1.11768434  1.11823890  2.32489816
  S10  -0.00866422  -0.00866852  -0.01802247
  S11  0.01126349  0.01126907  0.02342921
  S12  0.01126349  0.01126907  0.02342921
  S13  -0.00866422  -0.00866852  -0.01802247
  S14  -0.01472917  -0.01473648  -0.03063819
  S15  0.01083027  0.01083565  0.02252808
  S16  0.01039706  0.01040222  0.02162696
  S17  -0.01516238  -0.01516991  -0.03153932
  S18  0.01083027  0.01083565  0.02252808
  S19  -0.01472917  -0.01473648  -0.03063819
  S20  0.01083027  0.01083565  0.02252808
  S21  -0.01516238  -0.01516991  -0.03153932
  S22  -0.01516238  -0.01516991  -0.03153932
  S23  0.01083027  0.01083565  0.02252808
  S24  -0.01516238  -0.01516991  -0.03153932
  S25  0.01039706  0.01040222  0.02162696
