# generated using pymatgen
data_Ca(FeS2)4
_symmetry_space_group_name_H-M   'P 1'
_cell_length_a   6.51386072
_cell_length_b   11.36451203
_cell_length_c   7.67248357
_cell_angle_alpha   104.13376657
_cell_angle_beta   114.95650751
_cell_angle_gamma   90.05202054
_symmetry_Int_Tables_number   1
_chemical_formula_structural   Ca(FeS2)4
_chemical_formula_sum   'Ca2 Fe8 S16'
_cell_volume   495.84768317
_cell_formula_units_Z   2
loop_
 _symmetry_equiv_pos_site_id
 _symmetry_equiv_pos_as_xyz
  1  'x, y, z'
loop_
 _atom_site_type_symbol
 _atom_site_label
 _atom_site_symmetry_multiplicity
 _atom_site_fract_x
 _atom_site_fract_y
 _atom_site_fract_z
 _atom_site_occupancy
  Ca  Ca0  1  0.23320400  0.74876100  0.48670500  1
  Ca  Ca1  1  0.72793800  0.25810300  0.48638500  1
  Fe  Fe2  1  0.98971800  0.00818000  0.98298200  1
  Fe  Fe3  1  0.47912000  0.49688300  0.98588700  1
  Fe  Fe4  1  0.29092000  0.76762000  0.01152900  1
  Fe  Fe5  1  0.71914300  0.76400100  0.00766200  1
  Fe  Fe6  1  0.50702100  0.97404200  0.01334400  1
  Fe  Fe7  1  0.77257600  0.24570900  0.00374700  1
  Fe  Fe8  1  0.23664100  0.24638100  0.99934800  1
  Fe  Fe9  1  0.01667200  0.49464000  0.00376600  1
  S  S10  1  0.42405200  0.12838500  0.83903800  1
  S  S11  1  0.92601200  0.64735600  0.84445600  1
  S  S12  1  0.11091200  0.36635200  0.20775500  1
  S  S13  1  0.61930000  0.87032600  0.23486400  1
  S  S14  1  0.65483000  0.88642400  0.80824100  1
  S  S15  1  0.14929000  0.37688500  0.79632100  1
  S  S16  1  0.08280300  0.86819100  0.16931900  1
  S  S17  1  0.59001000  0.36273900  0.17341900  1
  S  S18  1  0.82888400  0.61142500  0.16878100  1
  S  S19  1  0.34277700  0.10713600  0.18104700  1
  S  S20  1  0.35027200  0.62080800  0.18501800  1
  S  S21  1  0.83938900  0.10816900  0.18662700  1
  S  S22  1  0.15370400  0.88831200  0.81071000  1
  S  S23  1  0.65921000  0.38514000  0.81682600  1
  S  S24  1  0.39980300  0.63400600  0.80825000  1
  S  S25  1  0.89580300  0.13402000  0.78797100  1
loop_
 _atom_site_moment_label
 _atom_site_moment_crystalaxis_x
 _atom_site_moment_crystalaxis_y
 _atom_site_moment_crystalaxis_z
  Ca0  0.00125304  0.00224876  0.00295924
  Ca1  0.00041768  0.00074959  0.00098641
  Fe2  0.45109404  0.80955344  1.06532608
  Fe3  0.39804873  0.71435595  0.94005162
  Fe4  -0.14577020  -0.26160570  -0.34425815
  Fe5  -0.16038899  -0.28784122  -0.37878261
  Fe6  -0.16456579  -0.29533709  -0.38864674
  Fe7  0.60605320  1.08765004  1.43128531
  Fe8  0.62401343  1.11988226  1.47370107
  Fe9  0.61106536  1.09664508  1.44312227
  S10  0.00292376  0.00524711  0.00690489
  S11  0.00668287  0.01199338  0.01578261
  S12  0.02798454  0.05022230  0.06608967
  S13  0.00250608  0.00449752  0.00591848
  S14  0.00208840  0.00374793  0.00493207
  S15  0.01503647  0.02698511  0.03551087
  S16  0.01127735  0.02023884  0.02663315
  S17  0.00208840  0.00374793  0.00493207
  S18  0.00375912  0.00674628  0.00887772
  S19  0.01712487  0.03073305  0.04044293
  S20  0.01378343  0.02473636  0.03255163
  S21  0.01712487  0.03073305  0.04044293
  S22  0.00292376  0.00524711  0.00690489
  S23  -0.00083536  -0.00149917  -0.00197283
  S24  0.00250608  0.00449752  0.00591848
  S25  0.02255470  0.04047767  0.05326630
