# generated using pymatgen
data_Ca(CrS2)2
_symmetry_space_group_name_H-M   'P 1'
_cell_length_a   7.32374400
_cell_length_b   7.51958462
_cell_length_c   7.32371400
_cell_angle_alpha   60.85674550
_cell_angle_beta   90.00001565
_cell_angle_gamma   119.14231417
_symmetry_Int_Tables_number   1
_chemical_formula_structural   Ca(CrS2)2
_chemical_formula_sum   'Ca2 Cr4 S8'
_cell_volume   292.42979057
_cell_formula_units_Z   2
loop_
 _symmetry_equiv_pos_site_id
 _symmetry_equiv_pos_as_xyz
  1  'x, y, z'
loop_
 _atom_site_type_symbol
 _atom_site_label
 _atom_site_symmetry_multiplicity
 _atom_site_fract_x
 _atom_site_fract_y
 _atom_site_fract_z
 _atom_site_occupancy
  Ca  Ca0  1  0.50000100  0.00000100  0.49999900  1
  Ca  Ca1  1  0.24999900  0.49999900  0.25000100  1
  Cr  Cr2  1  0.87500000  0.25000000  0.87500000  1
  Cr  Cr3  1  0.87500000  0.75000000  0.87500000  1
  Cr  Cr4  1  0.37500000  0.25000000  0.87500000  1
  Cr  Cr5  1  0.87500000  0.75000000  0.37500000  1
  S  S6  1  0.09900900  0.19801900  0.11894600  1
  S  S7  1  0.11894400  0.80197700  0.09901400  1
  S  S8  1  0.68303300  0.80197900  0.09901300  1
  S  S9  1  0.65099200  0.30198100  0.63105500  1
  S  S10  1  0.65098900  0.30197600  0.06696800  1
  S  S11  1  0.63105600  0.69802300  0.65098600  1
  S  S12  1  0.09901100  0.19802400  0.68303300  1
  S  S13  1  0.06696600  0.69802100  0.65098700  1
loop_
 _atom_site_moment_label
 _atom_site_moment_crystalaxis_x
 _atom_site_moment_crystalaxis_y
 _atom_site_moment_crystalaxis_z
  Ca0  -0.00000015  -0.00000030  0.01700015
  Ca1  -0.00000015  -0.00000030  0.01700015
  Cr2  -0.00002540  -0.00005299  2.96202581
  Cr3  -0.00002540  -0.00005299  2.96202581
  Cr4  -0.00002539  -0.00005297  2.96102580
  Cr5  -0.00002539  -0.00005297  2.96102580
  S6  0.00000072  0.00000150  -0.08400073
  S7  0.00000072  0.00000150  -0.08400073
  S8  0.00000072  0.00000150  -0.08400073
  S9  0.00000072  0.00000150  -0.08400073
  S10  0.00000072  0.00000150  -0.08400073
  S11  0.00000072  0.00000150  -0.08400073
  S12  0.00000072  0.00000150  -0.08400073
  S13  0.00000072  0.00000150  -0.08400073
