# generated using pymatgen
data_Mg(FeS2)2
_symmetry_space_group_name_H-M   'P 1'
_cell_length_a   6.87933498
_cell_length_b   7.01567903
_cell_length_c   7.02362473
_cell_angle_alpha   92.39701974
_cell_angle_beta   120.40637731
_cell_angle_gamma   59.66928648
_symmetry_Int_Tables_number   1
_chemical_formula_structural   Mg(FeS2)2
_chemical_formula_sum   'Mg2 Fe4 S8'
_cell_volume   241.71332333
_cell_formula_units_Z   2
loop_
 _symmetry_equiv_pos_site_id
 _symmetry_equiv_pos_as_xyz
  1  'x, y, z'
loop_
 _atom_site_type_symbol
 _atom_site_label
 _atom_site_symmetry_multiplicity
 _atom_site_fract_x
 _atom_site_fract_y
 _atom_site_fract_z
 _atom_site_occupancy
  Mg  Mg0  1  0.99999900  0.00000100  0.99999900  1
  Mg  Mg1  1  0.49999900  0.50000100  0.50000100  1
  Fe  Fe2  1  0.50000100  0.50000000  0.00000200  1
  Fe  Fe3  1  0.99999900  0.50000000  0.49999800  1
  Fe  Fe4  1  0.00000200  0.49999700  0.00000000  1
  Fe  Fe5  1  0.49999700  0.00000200  0.00000000  1
  S  S6  1  0.02791000  0.70549100  0.77808200  1
  S  S7  1  0.47245300  0.27792400  0.20552500  1
  S  S8  1  0.52754800  0.72207500  0.79447600  1
  S  S9  1  0.97209200  0.29450700  0.22191800  1
  S  S10  1  0.01757000  0.25783800  0.76546000  1
  S  S11  1  0.51762400  0.73451600  0.24191500  1
  S  S12  1  0.98242800  0.74216100  0.23453800  1
  S  S13  1  0.48237600  0.26548600  0.75808600  1
loop_
 _atom_site_moment_label
 _atom_site_moment_crystalaxis_x
 _atom_site_moment_crystalaxis_y
 _atom_site_moment_crystalaxis_z
  Mg0  -0.01698030  -0.00004324  -0.01718778
  Mg1  0.01698030  0.00004324  0.01718778
  Fe2  -1.47528818  -0.00375696  -1.49331494
  Fe3  -2.89164474  -0.00736385  -2.92697817
  Fe4  1.47728586  0.00376205  1.49533703
  Fe5  2.87366560  0.00731807  2.90877934
  S6  -0.02696871  -0.00006868  -0.02729824
  S7  0.02497103  0.00006359  0.02527615
  S8  0.02497103  0.00006359  0.02527615
  S9  -0.02696871  -0.00006868  -0.02729824
  S10  -0.00998841  -0.00002544  -0.01011046
  S11  0.00699189  0.00001781  0.00707732
  S12  -0.00998841  -0.00002544  -0.01011046
  S13  0.00699189  0.00001781  0.00707732
