# generated using pymatgen
data_Ca(MnS2)2
_symmetry_space_group_name_H-M   'P 1'
_cell_length_a   7.18934631
_cell_length_b   7.43427021
_cell_length_c   7.43302494
_cell_angle_alpha   62.09980944
_cell_angle_beta   61.08163010
_cell_angle_gamma   61.08687529
_symmetry_Int_Tables_number   1
_chemical_formula_structural   Ca(MnS2)2
_chemical_formula_sum   'Ca2 Mn4 S8'
_cell_volume   289.83527518
_cell_formula_units_Z   2
loop_
 _symmetry_equiv_pos_site_id
 _symmetry_equiv_pos_as_xyz
  1  'x, y, z'
loop_
 _atom_site_type_symbol
 _atom_site_label
 _atom_site_symmetry_multiplicity
 _atom_site_fract_x
 _atom_site_fract_y
 _atom_site_fract_z
 _atom_site_occupancy
  Ca  Ca0  1  0.00000100  0.00000000  0.00000000  1
  Ca  Ca1  1  0.00000100  0.50000100  0.49999900  1
  Mn  Mn2  1  0.50000000  0.00000000  0.99999900  1
  Mn  Mn3  1  0.50000100  0.50000000  0.49999900  1
  Mn  Mn4  1  0.50000000  0.50000000  0.00000000  1
  Mn  Mn5  1  0.00000000  0.50000000  0.00000000  1
  S  S6  1  0.74076000  0.30333700  0.21505400  1
  S  S7  1  0.74077900  0.71504300  0.80331400  1
  S  S8  1  0.25921800  0.28495600  0.19668700  1
  S  S9  1  0.25924000  0.69666300  0.78494600  1
  S  S10  1  0.29222500  0.72829300  0.22829000  1
  S  S11  1  0.24891200  0.27165600  0.77165200  1
  S  S12  1  0.70777500  0.27170900  0.77171000  1
  S  S13  1  0.75108800  0.72834400  0.22834800  1
loop_
 _atom_site_moment_label
 _atom_site_moment_crystalaxis_x
 _atom_site_moment_crystalaxis_y
 _atom_site_moment_crystalaxis_z
  Ca0  -0.00004070  0.00003683  -0.02299752
  Ca1  -0.00004070  0.00003683  -0.02299752
  Mn2  -0.00733530  0.00663698  -4.14455247
  Mn3  -0.00733353  0.00663537  -4.14355258
  Mn4  0.00485422  -0.00439209  2.74270385
  Mn5  0.00486130  -0.00439850  2.74670341
  S6  -0.00012742  0.00011529  -0.07199223
  S7  -0.00012742  0.00011529  -0.07199223
  S8  -0.00012742  0.00011529  -0.07199223
  S9  -0.00012742  0.00011529  -0.07199223
  S10  -0.00009733  0.00008807  -0.05499406
  S11  -0.00009733  0.00008807  -0.05499406
  S12  -0.00009733  0.00008807  -0.05499406
  S13  -0.00009733  0.00008807  -0.05499406
