# generated using pymatgen
data_Ca(CrS2)4
_symmetry_space_group_name_H-M   'P 1'
_cell_length_a   6.78638126
_cell_length_b   11.71187414
_cell_length_c   7.83803635
_cell_angle_alpha   104.48760505
_cell_angle_beta   115.67035878
_cell_angle_gamma   89.95615145
_symmetry_Int_Tables_number   1
_chemical_formula_structural   Ca(CrS2)4
_chemical_formula_sum   'Ca2 Cr8 S16'
_cell_volume   539.48643459
_cell_formula_units_Z   2
loop_
 _symmetry_equiv_pos_site_id
 _symmetry_equiv_pos_as_xyz
  1  'x, y, z'
loop_
 _atom_site_type_symbol
 _atom_site_label
 _atom_site_symmetry_multiplicity
 _atom_site_fract_x
 _atom_site_fract_y
 _atom_site_fract_z
 _atom_site_occupancy
  Ca  Ca0  1  0.24302600  0.75023300  0.49243300  1
  Ca  Ca1  1  0.74722700  0.24192000  0.49872800  1
  Cr  Cr2  1  0.49676600  0.49842700  0.99790900  1
  Cr  Cr3  1  0.00001700  0.00216000  0.99901700  1
  Cr  Cr4  1  0.73674300  0.26121100  0.00388000  1
  Cr  Cr5  1  0.26620600  0.74958900  0.99807600  1
  Cr  Cr6  1  0.26729100  0.26032700  0.00310700  1
  Cr  Cr7  1  0.73352700  0.75096400  0.99798600  1
  Cr  Cr8  1  0.99622300  0.49256300  0.99512300  1
  Cr  Cr9  1  0.50351800  0.98751400  0.00213500  1
  S  S10  1  0.40844300  0.13114200  0.81444900  1
  S  S11  1  0.91187700  0.63819600  0.82270700  1
  S  S12  1  0.09846800  0.36409500  0.19616600  1
  S  S13  1  0.60806600  0.86635000  0.21372800  1
  S  S14  1  0.65186200  0.88247800  0.79635300  1
  S  S15  1  0.14758100  0.38284900  0.79048000  1
  S  S16  1  0.09510900  0.86440500  0.18832900  1
  S  S17  1  0.60845400  0.37714200  0.21807800  1
  S  S18  1  0.84623400  0.61471900  0.19510700  1
  S  S19  1  0.34925200  0.11523900  0.19097600  1
  S  S20  1  0.34649100  0.61470400  0.19638000  1
  S  S21  1  0.84497900  0.11630100  0.19281000  1
  S  S22  1  0.14813800  0.88303900  0.79881300  1
  S  S23  1  0.64057500  0.38342000  0.79101900  1
  S  S24  1  0.39534500  0.62850300  0.78918100  1
  S  S25  1  0.90857600  0.14251300  0.81703000  1
loop_
 _atom_site_moment_label
 _atom_site_moment_crystalaxis_x
 _atom_site_moment_crystalaxis_y
 _atom_site_moment_crystalaxis_z
  Ca0  0.00471479  0.00837773  0.01089470
  Ca1  0.00514341  0.00913935  0.01188512
  Cr2  -1.07582895  -1.91164642  -2.48597138
  Cr3  1.15040833  2.04416693  2.65830565
  Cr4  1.06554214  1.89336773  2.46220113
  Cr5  1.07711480  1.91393126  2.48894266
  Cr6  1.06725661  1.89641418  2.46616284
  Cr7  1.07025693  1.90174546  2.47309583
  Cr8  1.07111416  1.90326869  2.47507668
  Cr9  1.08440129  1.92687866  2.50577991
  S10  -0.07200767  -0.12795084  -0.16639171
  S11  -0.07457938  -0.13252051  -0.17233427
  S12  -0.06900736  -0.12261955  -0.15945872
  S13  -0.07029321  -0.12490439  -0.16243000
  S14  -0.04114724  -0.07311476  -0.09508098
  S15  -0.02485979  -0.04417350  -0.05744476
  S16  -0.04714788  -0.08377733  -0.10894695
  S17  -0.02957458  -0.05255124  -0.06833945
  S18  -0.03086043  -0.05483607  -0.07131073
  S19  -0.04200448  -0.07463799  -0.09706183
  S20  -0.03214628  -0.05712091  -0.07428201
  S21  -0.04243309  -0.07539960  -0.09805226
  S22  -0.04071863  -0.07235315  -0.09409055
  S23  -0.02657426  -0.04721995  -0.06140646
  S24  -0.02528841  -0.04493512  -0.05843518
  S25  -0.05014820  -0.08910862  -0.11587994
