# generated using pymatgen
data_CaV2S5
_symmetry_space_group_name_H-M   'P 1'
_cell_length_a   4.17527110
_cell_length_b   6.04988904
_cell_length_c   14.23920905
_cell_angle_alpha   89.99585360
_cell_angle_beta   90.00796398
_cell_angle_gamma   92.61157689
_symmetry_Int_Tables_number   1
_chemical_formula_structural   CaV2S5
_chemical_formula_sum   'Ca2 V4 S10'
_cell_volume   359.30780430
_cell_formula_units_Z   2
loop_
 _symmetry_equiv_pos_site_id
 _symmetry_equiv_pos_as_xyz
  1  'x, y, z'
loop_
 _atom_site_type_symbol
 _atom_site_label
 _atom_site_symmetry_multiplicity
 _atom_site_fract_x
 _atom_site_fract_y
 _atom_site_fract_z
 _atom_site_occupancy
  Ca  Ca0  1  0.51382000  0.62171300  0.99993300  1
  Ca  Ca1  1  0.98625700  0.37835900  0.50005400  1
  V  V2  1  0.98600300  0.08876200  0.15219000  1
  V  V3  1  0.51413900  0.91123900  0.34779800  1
  V  V4  1  0.51333900  0.91112500  0.65218800  1
  V  V5  1  0.98642300  0.08905600  0.84779100  1
  S  S6  1  0.45874600  0.05010100  0.49999100  1
  S  S7  1  0.04140400  0.94981900  0.99995300  1
  S  S8  1  0.48467300  0.91700400  0.17917900  1
  S  S9  1  0.01552600  0.08294100  0.32081400  1
  S  S10  1  0.48494400  0.91750800  0.82077400  1
  S  S11  1  0.01484200  0.08265700  0.67924300  1
  S  S12  1  0.99600100  0.43223100  0.87723800  1
  S  S13  1  0.50375400  0.56765300  0.62278500  1
  S  S14  1  0.50395400  0.56764300  0.37735800  1
  S  S15  1  0.99617500  0.43219000  0.12271100  1
loop_
 _atom_site_moment_label
 _atom_site_moment_crystalaxis_x
 _atom_site_moment_crystalaxis_y
 _atom_site_moment_crystalaxis_z
  Ca0  0.00000045  -0.00000020  0.00600000
  Ca1  0.00000045  -0.00000020  0.00600000
  V2  0.00007909  -0.00003586  1.06200001
  V3  0.00007931  -0.00003596  1.06500001
  V4  0.00007916  -0.00003590  1.06300001
  V5  0.00007916  -0.00003590  1.06300001
  S6  -0.00000313  0.00000142  -0.04200000
  S7  -0.00000313  0.00000142  -0.04200000
  S8  -0.00000402  0.00000182  -0.05400000
  S9  -0.00000402  0.00000182  -0.05400000
  S10  -0.00000402  0.00000182  -0.05400000
  S11  -0.00000402  0.00000182  -0.05400000
  S12  -0.00000596  0.00000270  -0.08000000
  S13  -0.00000596  0.00000270  -0.08000000
  S14  -0.00000596  0.00000270  -0.08000000
  S15  -0.00000596  0.00000270  -0.08000000
