# generated using pymatgen
data_Mg(MnS2)4
_symmetry_space_group_name_H-M   'P 1'
_cell_length_a   6.90837101
_cell_length_b   12.33657935
_cell_length_c   6.90835799
_cell_angle_alpha   89.98499924
_cell_angle_beta   59.98817804
_cell_angle_gamma   73.68930119
_symmetry_Int_Tables_number   1
_chemical_formula_structural   Mg(MnS2)4
_chemical_formula_sum   'Mg2 Mn8 S16'
_cell_volume   482.29536362
_cell_formula_units_Z   2
loop_
 _symmetry_equiv_pos_site_id
 _symmetry_equiv_pos_as_xyz
  1  'x, y, z'
loop_
 _atom_site_type_symbol
 _atom_site_label
 _atom_site_symmetry_multiplicity
 _atom_site_fract_x
 _atom_site_fract_y
 _atom_site_fract_z
 _atom_site_occupancy
  Mg  Mg0  1  0.00004900  0.99992400  0.99997700  1
  Mg  Mg1  1  0.99997400  0.50003200  0.50001100  1
  Mn  Mn2  1  0.50000500  0.50000100  0.50000000  1
  Mn  Mn3  1  0.00002000  0.49999600  0.99998900  1
  Mn  Mn4  1  0.50000600  0.49999900  0.99998900  1
  Mn  Mn5  1  0.49934800  0.25105600  0.75037300  1
  Mn  Mn6  1  0.50061300  0.74897700  0.24964500  1
  Mn  Mn7  1  0.50000200  0.00001100  0.99998600  1
  Mn  Mn8  1  0.99997600  0.00000600  0.50001500  1
  Mn  Mn9  1  0.49999900  0.00001400  0.50001500  1
  S  S10  1  0.73931500  0.39116700  0.13039700  1
  S  S11  1  0.73860500  0.89217600  0.63073600  1
  S  S12  1  0.26139000  0.10782000  0.36926700  1
  S  S13  1  0.26069100  0.60883000  0.86959700  1
  S  S14  1  0.27564100  0.11585500  0.86211000  1
  S  S15  1  0.27895100  0.61479700  0.36052700  1
  S  S16  1  0.74598500  0.11595300  0.39211800  1
  S  S17  1  0.74540500  0.61494300  0.89419800  1
  S  S18  1  0.74587900  0.11606900  0.86177100  1
  S  S19  1  0.74524700  0.61503900  0.36031100  1
  S  S20  1  0.25456000  0.38508200  0.10585700  1
  S  S21  1  0.25406600  0.88401700  0.60782800  1
  S  S22  1  0.25471800  0.38498700  0.63966400  1
  S  S23  1  0.25416600  0.88389900  0.13824400  1
  S  S24  1  0.72108100  0.38523300  0.63945300  1
  S  S25  1  0.72430900  0.88411300  0.13791800  1
loop_
 _atom_site_moment_label
 _atom_site_moment_crystalaxis_x
 _atom_site_moment_crystalaxis_y
 _atom_site_moment_crystalaxis_z
  Mg0  0.00021447  0.02510818  0.01429176
  Mg1  0.00005177  0.00606059  0.00344974
  Mn2  -0.02004217  -2.34631588  -1.33554066
  Mn3  -0.01999041  -2.34025529  -1.33209092
  Mn4  -0.02007915  -2.35064488  -1.33800476
  Mn5  0.02796290  3.27358684  1.86335027
  Mn6  0.02808863  3.28830543  1.87172820
  Mn7  0.02087049  2.44328539  1.39073643
  Mn8  0.02087049  2.44328539  1.39073643
  Mn9  0.02088528  2.44501699  1.39172207
  S10  0.00039936  0.04675316  0.02661225
  S11  -0.00036239  -0.04242416  -0.02414815
  S12  -0.00036239  -0.04242416  -0.02414815
  S13  0.00039936  0.04675316  0.02661225
  S14  -0.00017010  -0.01991338  -0.01133485
  S15  0.00031062  0.03636357  0.02069842
  S16  -0.00019229  -0.02251078  -0.01281331
  S17  0.00030322  0.03549777  0.02020560
  S18  -0.00019968  -0.02337658  -0.01330612
  S19  0.00029583  0.03463197  0.01971278
  S20  0.00027364  0.03203457  0.01823432
  S21  -0.00016270  -0.01904758  -0.01084203
  S22  0.00027364  0.03203457  0.01823432
  S23  -0.00016270  -0.01904758  -0.01084203
  S24  0.00029583  0.03463197  0.01971278
  S25  -0.00014791  -0.01731598  -0.00985639
