# generated using pymatgen
data_Mg(MnS2)2
_symmetry_space_group_name_H-M   'P 1'
_cell_length_a   7.08260487
_cell_length_b   7.30537510
_cell_length_c   7.08554726
_cell_angle_alpha   60.96584082
_cell_angle_beta   90.00222457
_cell_angle_gamma   60.95784194
_symmetry_Int_Tables_number   1
_chemical_formula_structural   Mg(MnS2)2
_chemical_formula_sum   'Mg2 Mn4 S8'
_cell_volume   266.58929574
_cell_formula_units_Z   2
loop_
 _symmetry_equiv_pos_site_id
 _symmetry_equiv_pos_as_xyz
  1  'x, y, z'
loop_
 _atom_site_type_symbol
 _atom_site_label
 _atom_site_symmetry_multiplicity
 _atom_site_fract_x
 _atom_site_fract_y
 _atom_site_fract_z
 _atom_site_occupancy
  Mg  Mg0  1  0.49991100  0.00006900  0.50001500  1
  Mg  Mg1  1  0.75009100  0.49993000  0.24998700  1
  Mn  Mn2  1  0.12500100  0.74999900  0.87499800  1
  Mn  Mn3  1  0.12500000  0.74999800  0.37500400  1
  Mn  Mn4  1  0.62499500  0.25000200  0.87499900  1
  Mn  Mn5  1  0.12500200  0.25000100  0.87500000  1
  S  S6  1  0.88911600  0.22170400  0.11545300  1
  S  S7  1  0.33710600  0.77826100  0.11086900  1
  S  S8  1  0.88468100  0.77817600  0.11090700  1
  S  S9  1  0.36088500  0.27830200  0.63455500  1
  S  S10  1  0.36082300  0.27842400  0.08709900  1
  S  S11  1  0.91289500  0.72173600  0.63912800  1
  S  S12  1  0.88917900  0.22158000  0.66288800  1
  S  S13  1  0.36531500  0.72181900  0.63909800  1
loop_
 _atom_site_moment_label
 _atom_site_moment_crystalaxis_x
 _atom_site_moment_crystalaxis_y
 _atom_site_moment_crystalaxis_z
  Mn2  -0.00070162  0.00130727  -3.48863436
  Mn3  -0.00070182  0.00130765  -3.48963454
  Mn4  0.00070141  -0.00130690  3.48763418
  Mn5  0.00070302  -0.00130990  3.49563563
  S6  -0.00000603  0.00001124  -0.03000546
  S7  0.00000603  -0.00001124  0.03000546
  S8  0.00000583  -0.00001087  0.02900527
  S9  -0.00000603  0.00001124  -0.03000546
  S10  -0.00000583  0.00001087  -0.02900527
  S11  0.00000603  -0.00001124  0.03000546
  S12  -0.00000583  0.00001087  -0.02900527
  S13  0.00000583  -0.00001087  0.02900527
